data/upstream/arpae-go/extracted/Challenge_1_Original_Dataset_2_Scenarios/Original_Dataset_Real-Time_Edition_2/Network_05R-010/scenario_10/case.raw
 0,    100, 33, 0, 0, 60.0 / Header line 1
Header line 2
Header line 3
  1001,'',   115, 1, 1, 1, 1, 1.0064736, -65.54937, 1.1, 0.9, 1.1, 0.9
  1002,'',   115, 1, 1, 1, 1, 1.0463842, -69.660089, 1.1, 0.9, 1.1, 0.9
  1003,'',   115, 1, 1, 1, 1, 1.0167099, -63.508856, 1.1, 0.9, 1.1, 0.9
  1004,'',   230, 2, 1, 1, 1, 1.019273, -62.860233, 1.1, 0.9, 1.1, 0.9
  1005,'',   115, 1, 1, 1, 1, 1.0043478, -51.956002, 1.1, 0.9, 1.1, 0.9
  1006,'',  13.8, 2, 1, 1, 1, 1, -51.07207, 1.1, 0.9, 1.1, 0.9
  1007,'',   115, 1, 1, 1, 1, 1.0487353, -69.085044, 1.1, 0.9, 1.1, 0.9
  1008,'',   115, 1, 1, 1, 1, 1.0203692, -61.147408, 1.1, 0.9, 1.1, 0.9
  1009,'',  13.8, 2, 1, 1, 1, 1.0095603, -60.785665, 1.1, 0.9, 1.1, 0.9
  1010,'',   115, 1, 1, 1, 1, 1.0491739, -69.006352, 1.1, 0.9, 1.1, 0.9
  1011,'',    22, 2, 1, 1, 1, 1.0491739, -69.006352, 1.1, 0.9, 1.1, 0.9
  1012,'',   115, 1, 1, 1, 1, 1.0225782, -67.13369, 1.1, 0.9, 1.1, 0.9
  1013,'',   115, 1, 1, 1, 1, 1.0123689, -64.836361, 1.1, 0.9, 1.1, 0.9
  1014,'',   115, 1, 1, 1, 1, 1.0138097, -63.472011, 1.1, 0.9, 1.1, 0.9
  1015,'',   115, 1, 1, 1, 1, 1.0527962, -69.535766, 1.1, 0.9, 1.1, 0.9
  1016,'',   115, 1, 1, 1, 1, 1.015, -54.828396, 1.1, 0.9, 1.1, 0.9
  1017,'',   115, 1, 1, 1, 1, 1.0039968, -65.457602, 1.1, 0.9, 1.1, 0.9
  1018,'',   115, 1, 1, 1, 1, 1.0070818, -64.362145, 1.1, 0.9, 1.1, 0.9
  1019,'',   115, 1, 1, 1, 1, 1.015, -64.821456, 1.1, 0.9, 1.1, 0.9
  1020,'',   115, 1, 1, 1, 1, 1.015, -52.545684, 1.1, 0.9, 1.1, 0.9
  1021,'',  13.8, 2, 1, 1, 1, 1, -46.093137, 1.1, 0.9, 1.1, 0.9
  1022,'',   115, 1, 1, 1, 1, 1.0178417, -63.384078, 1.1, 0.9, 1.1, 0.9
  1023,'',  13.8, 2, 1, 1, 1, 1.01, -62.879132, 1.1, 0.9, 1.1, 0.9
  1024,'',   115, 1, 1, 1, 1, 1.005743, -63.488412, 1.1, 0.9, 1.1, 0.9
  1025,'',   115, 1, 1, 1, 1, 1.0129676, -50.980264, 1.1, 0.9, 1.1, 0.9
  1026,'',  13.8, 2, 1, 1, 1, 1, -40.820308, 1.1, 0.9, 1.1, 0.9
  1027,'',   115, 1, 1, 1, 1, 1, -66.230729, 1.1, 0.9, 1.1, 0.9
  1028,'',   115, 1, 1, 1, 1, 1.0218137, -63.301153, 1.1, 0.9, 1.1, 0.9
  1029,'',   115, 1, 1, 1, 1, 1.015, -66.309743, 1.1, 0.9, 1.1, 0.9
  1030,'',   115, 1, 1, 1, 1, 1.0253303, -66.347112, 1.1, 0.9, 1.1, 0.9
  1031,'',   115, 1, 1, 1, 1, 1.0313429, -67.493154, 1.1, 0.9, 1.1, 0.9
  1032,'',   115, 1, 1, 1, 1, 1.0094833, -62.417439, 1.1, 0.9, 1.1, 0.9
  1033,'',   230, 2, 1, 1, 1, 1.0128158, -64.26956, 1.1, 0.9, 1.1, 0.9
  1034,'',   115, 1, 1, 1, 1, 1.0035124, -51.932282, 1.1, 0.9, 1.1, 0.9
  1035,'',  13.8, 2, 1, 1, 1, 1, -48.321413, 1.1, 0.9, 1.1, 0.9
  1036,'',   115, 1, 1, 1, 1, 1.0023729, -60.740057, 1.1, 0.9, 1.1, 0.9
  1037,'',   115, 1, 1, 1, 1, 1.0016641, -65.920055, 1.1, 0.9, 1.1, 0.9
  1038,'',   115, 1, 1, 1, 1, 1.0120921, -62.192915, 1.1, 0.9, 1.1, 0.9
  1039,'',    22, 2, 1, 1, 1, 1, -61.909277, 1.1, 0.9, 1.1, 0.9
  1040,'',   115, 1, 1, 1, 1, 1.0066004, -63.95922, 1.1, 0.9, 1.1, 0.9
  1041,'',   115, 1, 1, 1, 1, 0.99994083, -52.631307, 1.1, 0.9, 1.1, 0.9
  1042,'',  13.8, 2, 1, 1, 1, 0.99994083, -52.631307, 1.1, 0.9, 1.1, 0.9
  1043,'',  13.8, 2, 1, 1, 1, 1, -48.890912, 1.1, 0.9, 1.1, 0.9
  1044,'',   115, 1, 1, 1, 1, 1.0149733, -61.919745, 1.1, 0.9, 1.1, 0.9
  1045,'',   115, 1, 1, 1, 1, 0.99822732, -66.26031, 1.1, 0.9, 1.1, 0.9
  1046,'',   115, 1, 1, 1, 1, 1.0243171, -65.592838, 1.1, 0.9, 1.1, 0.9
  1047,'',   115, 1, 1, 1, 1, 1.0101641, -63.312606, 1.1, 0.9, 1.1, 0.9
  1048,'',    18, 2, 1, 1, 1, 1.0101641, -63.312606, 1.1, 0.9, 1.1, 0.9
  1049,'',    18, 2, 1, 1, 1, 1.0101641, -63.312606, 1.1, 0.9, 1.1, 0.9
  1050,'',    18, 2, 1, 1, 1, 1.0008071, -61.726654, 1.1, 0.9, 1.1, 0.9
  1051,'',    18, 2, 1, 1, 1, 1, -61.259206, 1.1, 0.9, 1.1, 0.9
  1052,'',    18, 2, 1, 1, 1, 1.0027456, -61.991358, 1.1, 0.9, 1.1, 0.9
  1053,'',   230, 2, 1, 1, 1, 1.0175879, -63.737156, 1.1, 0.9, 1.1, 0.9
  1054,'',   115, 1, 1, 1, 1, 1.0079175, -63.95173, 1.1, 0.9, 1.1, 0.9
  1055,'',   115, 1, 1, 1, 1, 1.0114286, -63.929691, 1.1, 0.9, 1.1, 0.9
  1056,'',   115, 1, 1, 1, 1, 1.015, -62.855889, 1.1, 0.9, 1.1, 0.9
  1057,'',    18, 2, 1, 1, 1, 1.015, -62.855889, 1.1, 0.9, 1.1, 0.9
  1058,'',   115, 1, 1, 1, 1, 1.0260309, -61.855909, 1.1, 0.9, 1.1, 0.9
  1059,'',    22, 2, 1, 1, 1, 1.0260309, -61.855909, 1.1, 0.9, 1.1, 0.9
  1060,'',    22, 2, 1, 1, 1, 1.0260309, -61.855909, 1.1, 0.9, 1.1, 0.9
  1061,'',   115, 1, 1, 1, 1, 1.0124989, -61.104277, 1.1, 0.9, 1.1, 0.9
  1062,'',  13.8, 2, 1, 1, 1, 1.0124989, -61.104277, 1.1, 0.9, 1.1, 0.9
  1063,'',  13.8, 2, 1, 1, 1, 1.0124989, -61.104277, 1.1, 0.9, 1.1, 0.9
  1064,'',   115, 1, 1, 1, 1, 0.99924528, -66.366136, 1.1, 0.9, 1.1, 0.9
  1065,'',   115, 1, 1, 1, 1, 1.0013092, -53.168105, 1.1, 0.9, 1.1, 0.9
  1066,'',  13.8, 2, 1, 1, 1, 1, -46.93383, 1.1, 0.9, 1.1, 0.9
  1067,'',   115, 1, 1, 1, 1, 0.99771143, -52.710621, 1.1, 0.9, 1.1, 0.9
  1068,'',   115, 1, 1, 1, 1, 0.99265262, -58.450181, 1.1, 0.9, 1.1, 0.9
  1069,'',   115, 1, 1, 1, 1, 1.0260529, -60.904345, 1.1, 0.9, 1.1, 0.9
  1070,'',  13.8, 2, 1, 1, 1, 1.04, -58.0061, 1.1, 0.9, 1.1, 0.9
  1071,'',   115, 1, 1, 1, 1, 1.0131552, -64.805984, 1.1, 0.9, 1.1, 0.9
  1072,'',    18, 2, 1, 1, 1, 1.01, -61.923131, 1.1, 0.9, 1.1, 0.9
  1073,'',    18, 2, 1, 1, 1, 1.01, -60.020997, 1.1, 0.9, 1.1, 0.9
  1074,'',    18, 2, 1, 1, 1, 1.01, -60.621104, 1.1, 0.9, 1.1, 0.9
  1075,'',    18, 2, 1, 1, 1, 1.01, -61.457979, 1.1, 0.9, 1.1, 0.9
  1076,'',    18, 2, 1, 1, 1, 1.0131552, -64.805984, 1.1, 0.9, 1.1, 0.9
  1077,'',    18, 2, 1, 1, 1, 1.0131552, -64.805984, 1.1, 0.9, 1.1, 0.9
  1078,'',    18, 2, 1, 1, 1, 1.01, -61.621652, 1.1, 0.9, 1.1, 0.9
  1079,'',   500, 2, 1, 1, 1, 1.0536353, -67.518369, 1.1, 0.9, 1.1, 0.9
  1080,'',    18, 2, 1, 1, 1, 1.01, -61.423013, 1.1, 0.9, 1.1, 0.9
  1081,'',   230, 2, 1, 1, 1, 1.0190301, -63.886162, 1.1, 0.9, 1.1, 0.9
  1082,'',   115, 2, 1, 1, 1, 1.0144902, -60.539356, 1.1, 0.9, 1.1, 0.9
  1083,'',   115, 1, 1, 1, 1, 1.015, -63.451083, 1.1, 0.9, 1.1, 0.9
  1084,'',   115, 2, 1, 1, 1, 1.0237191, -54.343819, 1.1, 0.9, 1.1, 0.9
  1085,'',   115, 1, 1, 1, 1, 1.0126583, -63.569086, 1.1, 0.9, 1.1, 0.9
  1086,'',   115, 1, 1, 1, 1, 1.015, -65.595079, 1.1, 0.9, 1.1, 0.9
  1087,'',   115, 1, 1, 1, 1, 1.0274666, -63.589036, 1.1, 0.9, 1.1, 0.9
  1088,'',   115, 2, 1, 1, 1, 1, -58.391273, 1.1, 0.9, 1.1, 0.9
  1089,'',   115, 1, 1, 1, 1, 0.99598314, -65.110856, 1.1, 0.9, 1.1, 0.9
  1090,'',   115, 2, 1, 1, 1, 1.02, -61.155834, 1.1, 0.9, 1.1, 0.9
  1091,'',   161, 1, 1, 1, 1, 1.0274703, -67.807012, 1.1, 0.9, 1.1, 0.9
  2001,'',   161, 1, 1, 1, 1, 1.0269337, -79.845138, 1.1, 0.9, 1.1, 0.9
  2002,'',   500, 1, 1, 1, 1, 1.0289478, -79.936771, 1.1, 0.9, 1.1, 0.9
  2003,'',   161, 1, 1, 1, 1, 1.0248459, -81.059065, 1.1, 0.9, 1.1, 0.9
  2004,'',  13.8, 2, 1, 1, 1, 1.0289478, -79.936771, 1.1, 0.9, 1.1, 0.9
  2005,'',  13.8, 2, 1, 1, 1, 1.0289478, -79.936771, 1.1, 0.9, 1.1, 0.9
  2006,'',  13.8, 2, 1, 1, 1, 1.0289478, -79.936771, 1.1, 0.9, 1.1, 0.9
  2007,'',   161, 1, 1, 1, 1, 1.0257298, -79.641553, 1.1, 0.9, 1.1, 0.9
  2008,'',   161, 1, 1, 1, 1, 1.0315302, -69.482823, 1.1, 0.9, 1.1, 0.9
  2009,'',   161, 1, 1, 1, 1, 1.0258674, -71.984584, 1.1, 0.9, 1.1, 0.9
  2010,'',   161, 1, 1, 1, 1, 1.0267968, -69.101581, 1.1, 0.9, 1.1, 0.9
  2011,'',   500, 1, 1, 1, 1, 1.0395732, -68.525187, 1.1, 0.9, 1.1, 0.9
  2012,'',   161, 1, 1, 1, 1, 1.0312521, -68.097643, 1.1, 0.9, 1.1, 0.9
  2013,'',    18, 2, 1, 1, 1, 1.0315402, -68.14242, 1.1, 0.9, 1.1, 0.9
  2014,'',   161, 1, 1, 1, 1, 1.0310249, -69.629367, 1.1, 0.9, 1.1, 0.9
  2015,'',   161, 1, 1, 1, 1, 1.0174013, -77.242744, 1.1, 0.9, 1.1, 0.9
  2016,'',   161, 1, 1, 1, 1, 1.0088815, -83.8892, 1.1, 0.9, 1.1, 0.9
  2017,'',   500, 1, 1, 1, 1, 1.0248397, -68.288462, 1.1, 0.9, 1.1, 0.9
  2018,'',   161, 1, 1, 1, 1, 1.0276022, -68.210509, 1.1, 0.9, 1.1, 0.9
  2019,'',    20, 2, 1, 1, 1, 1.0248397, -68.288462, 1.1, 0.9, 1.1, 0.9
  2020,'',   161, 1, 1, 1, 1, 1.0317398, -71.844901, 1.1, 0.9, 1.1, 0.9
  2021,'',   500, 1, 1, 1, 1, 1.0295541, -78.230395, 1.1, 0.9, 1.1, 0.9
  2022,'',   161, 1, 1, 1, 1, 1.0297498, -79.154889, 1.1, 0.9, 1.1, 0.9
  2023,'',  13.8, 2, 1, 1, 1, 1.0266108, -77.748658, 1.1, 0.9, 1.1, 0.9
  2024,'',  13.8, 2, 1, 1, 1, 1.0253134, -77.54378, 1.1, 0.9, 1.1, 0.9
  2025,'',   161, 1, 1, 1, 1, 1.0312836, -71.401223, 1.1, 0.9, 1.1, 0.9
  2026,'',   161, 1, 1, 1, 1, 1.032169, -68.48218, 1.1, 0.9, 1.1, 0.9
  2027,'',   161, 1, 1, 1, 1, 1.028482, -80.047833, 1.1, 0.9, 1.1, 0.9
  2028,'',   161, 1, 1, 1, 1, 1.027573, -72.711513, 1.1, 0.9, 1.1, 0.9
  2029,'',   161, 1, 1, 1, 1, 1.0327025, -69.145496, 1.1, 0.9, 1.1, 0.9
  2030,'',   161, 1, 1, 1, 1, 1.0176262, -81.443232, 1.1, 0.9, 1.1, 0.9
  2031,'',   161, 1, 1, 1, 1, 1.0359277, -66.102155, 1.1, 0.9, 1.1, 0.9
  2032,'',   161, 1, 1, 1, 1, 1.0267555, -79.374037, 1.1, 0.9, 1.1, 0.9
  2033,'',   161, 1, 1, 1, 1, 1.0180884, -81.972573, 1.1, 0.9, 1.1, 0.9
  2034,'',   161, 1, 1, 1, 1, 1.0095393, -83.646559, 1.1, 0.9, 1.1, 0.9
  2035,'',   161, 1, 1, 1, 1, 1.0349573, -66.027733, 1.1, 0.9, 1.1, 0.9
  2036,'',   161, 1, 1, 1, 1, 1.0307871, -71.676348, 1.1, 0.9, 1.1, 0.9
  2037,'',   161, 1, 1, 1, 1, 1.0191996, -76.860542, 1.1, 0.9, 1.1, 0.9
  2038,'',   161, 1, 1, 1, 1, 1.0237208, -81.284743, 1.1, 0.9, 1.1, 0.9
  2039,'',   161, 1, 1, 1, 1, 1.0179537, -77.301995, 1.1, 0.9, 1.1, 0.9
  2040,'',   161, 1, 1, 1, 1, 1.0305438, -79.526169, 1.1, 0.9, 1.1, 0.9
  2041,'',   161, 1, 1, 1, 1, 1.0274739, -67.545245, 1.1, 0.9, 1.1, 0.9
  2042,'',    18, 2, 1, 1, 1, 1.0189193, -66.874728, 1.1, 0.9, 1.1, 0.9
  2043,'',   161, 1, 1, 1, 1, 1.0092434, -83.762527, 1.1, 0.9, 1.1, 0.9
  2044,'',   161, 1, 1, 1, 1, 1.0104183, -82.812877, 1.1, 0.9, 1.1, 0.9
  2045,'',   161, 1, 1, 1, 1, 1.0306402, -72.049673, 1.1, 0.9, 1.1, 0.9
  2046,'',   161, 1, 1, 1, 1, 1.0099662, -83.489594, 1.1, 0.9, 1.1, 0.9
  2047,'',   161, 1, 1, 1, 1, 1.0221456, -81.501227, 1.1, 0.9, 1.1, 0.9
  2048,'',   161, 1, 1, 1, 1, 1.0336774, -67.528304, 1.1, 0.9, 1.1, 0.9
  2049,'',   161, 1, 1, 1, 1, 1.0249227, -70.523264, 1.1, 0.9, 1.1, 0.9
  2050,'',   161, 1, 1, 1, 1, 1.0253054, -81.232431, 1.1, 0.9, 1.1, 0.9
  2051,'',   161, 1, 1, 1, 1, 1.0228629, -74.941462, 1.1, 0.9, 1.1, 0.9
  2052,'',   161, 1, 1, 1, 1, 1.0301711, -69.130283, 1.1, 0.9, 1.1, 0.9
  2053,'',   161, 1, 1, 1, 1, 1.0193541, -77.518326, 1.1, 0.9, 1.1, 0.9
  2054,'',   500, 1, 1, 1, 1, 1.0366064, -71.1366, 1.1, 0.9, 1.1, 0.9
  2055,'',   161, 1, 1, 1, 1, 1.0338319, -71.464978, 1.1, 0.9, 1.1, 0.9
  2056,'',    18, 2, 1, 1, 1, 1.0366064, -71.1366, 1.1, 0.9, 1.1, 0.9
  2057,'',    18, 2, 1, 1, 1, 1.0257153, -69.529104, 1.1, 0.9, 1.1, 0.9
  2058,'',   161, 1, 1, 1, 1, 1.0263255, -67.484664, 1.1, 0.9, 1.1, 0.9
  2059,'',  13.8, 2, 1, 1, 1, 1.0151026, -67.212169, 1.1, 0.9, 1.1, 0.9
  2060,'',   161, 1, 1, 1, 1, 1.0246351, -80.605215, 1.1, 0.9, 1.1, 0.9
  2061,'',   161, 1, 1, 1, 1, 1.0245142, -69.239657, 1.1, 0.9, 1.1, 0.9
  2062,'',    18, 2, 1, 1, 1, 1.02, -68.328847, 1.1, 0.9, 1.1, 0.9
  2063,'',   161, 1, 1, 1, 1, 1.0111804, -83.193933, 1.1, 0.9, 1.1, 0.9
  2064,'',   161, 1, 1, 1, 1, 1.0271126, -79.884955, 1.1, 0.9, 1.1, 0.9
  2065,'',   161, 1, 1, 1, 1, 1.0029606, -83.657243, 1.1, 0.9, 1.1, 0.9
  2066,'',   161, 1, 1, 1, 1, 1.0347351, -64.457505, 1.1, 0.9, 1.1, 0.9
  2067,'',   161, 1, 1, 1, 1, 1.0292074, -71.158009, 1.1, 0.9, 1.1, 0.9
  2068,'',   161, 1, 1, 1, 1, 1.0268434, -69.275599, 1.1, 0.9, 1.1, 0.9
  2069,'',   161, 1, 1, 1, 1, 1.015, -83.322502, 1.1, 0.9, 1.1, 0.9
  2070,'',   161, 1, 1, 1, 1, 1.027161, -68.632339, 1.1, 0.9, 1.1, 0.9
  2071,'',    18, 2, 1, 1, 1, 1.0143395, -64.646431, 1.1, 0.9, 1.1, 0.9
  2072,'',   161, 1, 1, 1, 1, 1.018737, -82.491148, 1.1, 0.9, 1.1, 0.9
  2073,'',   161, 1, 1, 1, 1, 1.0338376, -63.097142, 1.1, 0.9, 1.1, 0.9
  2074,'',   115, 1, 1, 1, 1, 1.0244916, -62.063588, 1.1, 0.9, 1.1, 0.9
  2075,'',   115, 1, 1, 1, 1, 1.0244916, -62.063588, 1.1, 0.9, 1.1, 0.9
  2076,'',    24, 2, 1, 1, 1, 1.0386656, -62.754139, 1.1, 0.9, 1.1, 0.9
  2077,'',   161, 1, 1, 1, 1, 1.020362, -76.483359, 1.1, 0.9, 1.1, 0.9
  2078,'',  13.8, 2, 1, 1, 1, 1.02, -75.818172, 1.1, 0.9, 1.1, 0.9
  2079,'',   161, 1, 1, 1, 1, 1.0317138, -68.553239, 1.1, 0.9, 1.1, 0.9
  2080,'',   161, 1, 1, 1, 1, 1.0214845, -75.949409, 1.1, 0.9, 1.1, 0.9
  2081,'',   161, 1, 1, 1, 1, 1.0214002, -81.662052, 1.1, 0.9, 1.1, 0.9
  2082,'',   161, 1, 1, 1, 1, 1.028578, -71.791673, 1.1, 0.9, 1.1, 0.9
  2083,'',    20, 2, 1, 1, 1, 1.0260251, -70.233171, 1.1, 0.9, 1.1, 0.9
  2084,'',    20, 2, 1, 1, 1, 1.028578, -71.791673, 1.1, 0.9, 1.1, 0.9
  2085,'',    20, 2, 1, 1, 1, 1.028578, -71.791673, 1.1, 0.9, 1.1, 0.9
  2086,'',   161, 1, 1, 1, 1, 1.0196365, -76.798046, 1.1, 0.9, 1.1, 0.9
  2087,'',   161, 1, 1, 1, 1, 1.0355806, -64.647761, 1.1, 0.9, 1.1, 0.9
  2088,'',   161, 1, 1, 1, 1, 1.0265848, -69.005123, 1.1, 0.9, 1.1, 0.9
  2089,'',    24, 2, 1, 1, 1, 1.0150885, -68.214362, 1.1, 0.9, 1.1, 0.9
  2090,'',   161, 1, 1, 1, 1, 1.0300057, -80.316516, 1.1, 0.9, 1.1, 0.9
  2091,'',   161, 1, 1, 1, 1, 1.0318986, -67.843726, 1.1, 0.9, 1.1, 0.9
  2092,'',   161, 1, 1, 1, 1, 1.0162369, -82.388839, 1.1, 0.9, 1.1, 0.9
  2093,'',   161, 1, 1, 1, 1, 1.0300953, -68.157576, 1.1, 0.9, 1.1, 0.9
  2094,'',  13.8, 2, 1, 1, 1, 1.0300953, -68.157576, 1.1, 0.9, 1.1, 0.9
  2095,'',  13.8, 2, 1, 1, 1, 1.0300953, -68.157576, 1.1, 0.9, 1.1, 0.9
  2096,'',   500, 1, 1, 1, 1, 1, -66.759125, 1.1, 0.9, 1.1, 0.9
  2097,'',   230, 1, 1, 1, 1, 1.0037118, -66.436574, 1.1, 0.9, 1.1, 0.9
  2098,'',   161, 1, 1, 1, 1, 1.0245076, -67.560777, 1.1, 0.9, 1.1, 0.9
  2099,'',    18, 2, 1, 1, 1, 1.0007407, -66.75551, 1.1, 0.9, 1.1, 0.9
  2100,'',    18, 2, 1, 1, 1, 1.0133774, -66.688868, 1.1, 0.9, 1.1, 0.9
  2101,'',   500, 1, 1, 1, 1, 1.0280105, -80.260175, 1.1, 0.9, 1.1, 0.9
  2102,'',   161, 1, 1, 1, 1, 1.0249777, -81.103084, 1.1, 0.9, 1.1, 0.9
  2103,'',    20, 2, 1, 1, 1, 1.0280105, -80.260175, 1.1, 0.9, 1.1, 0.9
  2104,'',    20, 2, 1, 1, 1, 1.0280105, -80.260175, 1.1, 0.9, 1.1, 0.9
  2105,'',    20, 2, 1, 1, 1, 1.0280105, -80.260175, 1.1, 0.9, 1.1, 0.9
  2106,'',   161, 1, 1, 1, 1, 1.0158018, -82.19024, 1.1, 0.9, 1.1, 0.9
  2107,'',   161, 1, 1, 1, 1, 1.0221586, -81.505172, 1.1, 0.9, 1.1, 0.9
  2108,'',   161, 1, 1, 1, 1, 1.0360254, -71.000781, 1.1, 0.9, 1.1, 0.9
  2109,'',   161, 1, 1, 1, 1, 1.0251424, -72.457834, 1.1, 0.9, 1.1, 0.9
...
0 / END OF BUS DATA, BEGIN LOAD DATA
1001, '1', 1, 1, 1, 14.859, 4.21, 0, 0, 0, 0, 1, 1, 0
1002, '1', 1, 1, 1, 11.021, 3.123, 0, 0, 0, 0, 1, 1, 0
1007, '1', 1, 1, 1, 5.011, 1.42, 0, 0, 0, 0, 1, 1, 0
1012, '1', 1, 1, 1, 2.134, 0.605, 0, 0, 0, 0, 1, 1, 0
1013, '1', 1, 1, 1, 20.897, 5.921, 0, 0, 0, 0, 1, 1, 0
1014, '1', 1, 1, 1, 1.587, 0.45, 0, 0, 0, 0, 1, 1, 0
1015, '1', 1, 1, 1, 5.369, 1.521, 0, 0, 0, 0, 1, 1, 0
1016, '1', 1, 1, 1, 2.066, 0.585, 0, 0, 0, 0, 1, 1, 0
1017, '1', 1, 1, 1, 13.117, 3.717, 0, 0, 0, 0, 1, 1, 0
1018, '1', 1, 1, 1, 0.049, 0.014, 0, 0, 0, 0, 1, 1, 0
1019, '1', 1, 1, 1, 44.171, 12.515, 0, 0, 0, 0, 1, 1, 0
1024, '1', 1, 1, 1, 45.074, 12.771, 0, 0, 0, 0, 1, 1, 0
1027, '1', 1, 1, 1, 72.368, 20.504, 0, 0, 0, 0, 1, 1, 0
1028, '1', 1, 1, 1, 7.16, 2.029, 0, 0, 0, 0, 1, 1, 0
1029, '1', 1, 1, 1, 59.478, 16.852, 0, 0, 0, 0, 1, 1, 0
1030, '1', 1, 1, 1, 17.608, 4.989, 0, 0, 0, 0, 1, 1, 0
1031, '1', 1, 1, 1, 6.611, 1.873, 0, 0, 0, 0, 1, 1, 0
1036, '1', 1, 1, 1, 9.721, 2.754, 0, 0, 0, 0, 1, 1, 0
1037, '1', 1, 1, 1, 73.102, 20.712, 0, 0, 0, 0, 1, 1, 0
1040, '1', 1, 1, 1, 31.717, 8.986, 0, 0, 0, 0, 1, 1, 0
1044, '1', 1, 1, 1, 10.498, 2.974, 0, 0, 0, 0, 1, 1, 0
1045, '1', 1, 1, 1, 70.474, 19.968, 0, 0, 0, 0, 1, 1, 0
1046, '1', 1, 1, 1, 7.926, 2.245, 0, 0, 0, 0, 1, 1, 0
1054, '1', 1, 1, 1, 10.717, 3.036, 0, 0, 0, 0, 1, 1, 0
1055, '1', 1, 1, 1, 2.844, 0.806, 0, 0, 0, 0, 1, 1, 0
1058, '1', 1, 1, 1, 9.621, 2.726, 0, 0, 0, 0, 1, 1, 0
1064, '1', 1, 1, 1, 88.491, 25.072, 0, 0, 0, 0, 1, 1, 0
1067, '1', 1, 1, 1, 72.611, 20.573, 0, 0, 0, 0, 1, 1, 0
1068, '1', 1, 1, 1, 42.474, 12.035, 0, 0, 0, 0, 1, 1, 0
1071, '1', 1, 1, 1, 65.399, 18.53, 0, 0, 0, 0, 1, 1, 0
1083, '1', 1, 1, 1, 28.562, 8.092, 0, 0, 0, 0, 1, 1, 0
1085, '1', 1, 1, 1, 15.228, 4.315, 0, 0, 0, 0, 1, 1, 0
1086, '1', 1, 1, 1, 28.366, 8.037, 0, 0, 0, 0, 1, 1, 0
1087, '1', 1, 1, 1, 0.65, 0.184, 0, 0, 0, 0, 1, 1, 0
1089, '1', 1, 1, 1, 29.033, 8.226, 0, 0, 0, 0, 1, 1, 0
1091, '1', 1, 1, 1, 8.31, 2.355, 0, 0, 0, 0, 1, 1, 0
2001, '1', 1, 1, 1, 26.566, 7.527, 0, 0, 0, 0, 1, 1, 0
2007, '1', 1, 1, 1, 5.241, 1.485, 0, 0, 0, 0, 1, 1, 0
2008, '1', 1, 1, 1, 4.428, 1.255, 0, 0, 0, 0, 1, 1, 0
2009, '1', 1, 1, 1, 21.5, 6.092, 0, 0, 0, 0, 1, 1, 0
2010, '1', 1, 1, 1, 31.207, 8.842, 0, 0, 0, 0, 1, 1, 0
2014, '1', 1, 1, 1, 13.969, 3.958, 0, 0, 0, 0, 1, 1, 0
2015, '1', 1, 1, 1, 2.574, 0.729, 0, 0, 0, 0, 1, 1, 0
2016, '1', 1, 1, 1, 38.053, 10.782, 0, 0, 0, 0, 1, 1, 0
2020, '1', 1, 1, 1, 26.355, 7.467, 0, 0, 0, 0, 1, 1, 0
2022, '1', 1, 1, 1, 6.353, 1.8, 0, 0, 0, 0, 1, 1, 0
2025, '1', 1, 1, 1, 21.765, 6.167, 0, 0, 0, 0, 1, 1, 0
2026, '1', 1, 1, 1, 10.202, 2.892, 0, 0, 0, 0, 1, 1, 0
2027, '1', 1, 1, 1, 1.953, 0.553, 0, 0, 0, 0, 1, 1, 0
2028, '1', 1, 1, 1, 7.822, 2.216, 0, 0, 0, 0, 1, 1, 0
2029, '1', 1, 1, 1, 1.759, 0.498, 0, 0, 0, 0, 1, 1, 0
2030, '1', 1, 1, 1, 25.9, 7.338, 0, 0, 0, 0, 1, 1, 0
2031, '1', 1, 1, 1, 3.168, 0.897, 0, 0, 0, 0, 1, 1, 0
2032, '1', 1, 1, 1, 1.843, 0.522, 0, 0, 0, 0, 1, 1, 0
2033, '1', 1, 1, 1, 7.456, 2.113, 0, 0, 0, 0, 1, 1, 0
2034, '1', 1, 1, 1, 2.934, 0.831, 0, 0, 0, 0, 1, 1, 0
2035, '1', 1, 1, 1, 2.572, 0.729, 0, 0, 0, 0, 1, 1, 0
2036, '1', 1, 1, 1, 22.846, 6.473, 0, 0, 0, 0, 1, 1, 0
2037, '1', 1, 1, 1, 1.923, 0.545, 0, 0, 0, 0, 1, 1, 0
2038, '1', 1, 1, 1, 1.431, 0.405, 0, 0, 0, 0, 1, 1, 0
2039, '1', 1, 1, 1, 3.054, 0.865, 0, 0, 0, 0, 1, 1, 0
2040, '1', 1, 1, 1, 8.737, 2.475, 0, 0, 0, 0, 1, 1, 0
2043, '1', 1, 1, 1, 2.327, 0.659, 0, 0, 0, 0, 1, 1, 0
2044, '1', 1, 1, 1, 15.055, 4.266, 0, 0, 0, 0, 1, 1, 0
2045, '1', 1, 1, 1, 12.419, 3.519, 0, 0, 0, 0, 1, 1, 0
2046, '1', 1, 1, 1, 12.16, 3.445, 0, 0, 0, 0, 1, 1, 0
2047, '1', 1, 1, 1, 8.215, 2.327, 0, 0, 0, 0, 1, 1, 0
2048, '1', 1, 1, 1, 3.525, 0.999, 0, 0, 0, 0, 1, 1, 0
2049, '1', 1, 1, 1, 6.357, 1.801, 0, 0, 0, 0, 1, 1, 0
2050, '1', 1, 1, 1, 2.009, 0.569, 0, 0, 0, 0, 1, 1, 0
2051, '1', 1, 1, 1, 9.806, 2.778, 0, 0, 0, 0, 1, 1, 0
2052, '1', 1, 1, 1, 13.644, 3.866, 0, 0, 0, 0, 1, 1, 0
2053, '1', 1, 1, 1, 16.005, 4.535, 0, 0, 0, 0, 1, 1, 0
2055, '1', 1, 1, 1, 27.26, 7.724, 0, 0, 0, 0, 1, 1, 0
2060, '1', 1, 1, 1, 2.085, 0.591, 0, 0, 0, 0, 1, 1, 0
2063, '1', 1, 1, 1, 36.047, 10.213, 0, 0, 0, 0, 1, 1, 0
2064, '1', 1, 1, 1, 5.519, 1.563, 0, 0, 0, 0, 1, 1, 0
2065, '1', 1, 1, 1, 43.049, 12.197, 0, 0, 0, 0, 1, 1, 0
2066, '1', 1, 1, 1, 3.908, 1.107, 0, 0, 0, 0, 1, 1, 0
2067, '1', 1, 1, 1, 29.648, 8.4, 0, 0, 0, 0, 1, 1, 0
2068, '1', 1, 1, 1, 3.164, 0.897, 0, 0, 0, 0, 1, 1, 0
2069, '1', 1, 1, 1, 12.044, 3.413, 0, 0, 0, 0, 1, 1, 0
2072, '1', 1, 1, 1, 5.332, 1.511, 0, 0, 0, 0, 1, 1, 0
2079, '1', 1, 1, 1, 2.461, 0.697, 0, 0, 0, 0, 1, 1, 0
2080, '1', 1, 1, 1, 9.302, 2.636, 0, 0, 0, 0, 1, 1, 0
2081, '1', 1, 1, 1, 2.452, 0.695, 0, 0, 0, 0, 1, 1, 0
2082, '1', 1, 1, 1, 32.43, 9.188, 0, 0, 0, 0, 1, 1, 0
2086, '1', 1, 1, 1, 1.205, 0.341, 0, 0, 0, 0, 1, 1, 0
2087, '1', 1, 1, 1, 4.338, 1.229, 0, 0, 0, 0, 1, 1, 0
2090, '1', 1, 1, 1, 1.332, 0.377, 0, 0, 0, 0, 1, 1, 0
2091, '1', 1, 1, 1, 9.365, 2.653, 0, 0, 0, 0, 1, 1, 0
2092, '1', 1, 1, 1, 13.244, 3.753, 0, 0, 0, 0, 1, 1, 0
2106, '1', 1, 1, 1, 7.913, 2.242, 0, 0, 0, 0, 1, 1, 0
2107, '1', 1, 1, 1, 40.736, 11.542, 0, 0, 0, 0, 1, 1, 0
2108, '1', 1, 1, 1, 1.178, 0.334, 0, 0, 0, 0, 1, 1, 0
2109, '1', 1, 1, 1, 18.574, 5.263, 0, 0, 0, 0, 1, 1, 0
2110, '1', 1, 1, 1, 4.719, 1.337, 0, 0, 0, 0, 1, 1, 0
2111, '1', 1, 1, 1, 7.666, 2.172, 0, 0, 0, 0, 1, 1, 0
2112, '1', 1, 1, 1, 2.495, 0.707, 0, 0, 0, 0, 1, 1, 0
2114, '1', 1, 1, 1, 38.882, 11.017, 0, 0, 0, 0, 1, 1, 0
2121, '1', 1, 1, 1, 1.282, 0.363, 0, 0, 0, 0, 1, 1, 0
2122, '1', 1, 1, 1, 3.693, 1.046, 0, 0, 0, 0, 1, 1, 0
2124, '1', 1, 1, 1, 11.693, 3.313, 0, 0, 0, 0, 1, 1, 0
2125, '1', 1, 1, 1, 2.228, 0.631, 0, 0, 0, 0, 1, 1, 0
2126, '1', 1, 1, 1, 7.82, 2.216, 0, 0, 0, 0, 1, 1, 0
2129, '1', 1, 1, 1, 3.644, 1.032, 0, 0, 0, 0, 1, 1, 0
2132, '1', 1, 1, 1, 6.559, 1.859, 0, 0, 0, 0, 1, 1, 0
2133, '1', 1, 1, 1, 3.12, 0.884, 0, 0, 0, 0, 1, 1, 0
3002, '1', 1, 1, 1, 60.349, 17.099, 0, 0, 0, 0, 1, 1, 0
3005, '1', 1, 1, 1, 3.925, 1.112, 0, 0, 0, 0, 1, 1, 0
3006, '1', 1, 1, 1, 3.929, 1.113, 0, 0, 0, 0, 1, 1, 0
3007, '1', 1, 1, 1, 8.002, 2.267, 0, 0, 0, 0, 1, 1, 0
3008, '1', 1, 1, 1, 10.593, 3.001, 0, 0, 0, 0, 1, 1, 0
3009, '1', 1, 1, 1, 6.705, 1.9, 0, 0, 0, 0, 1, 1, 0
3010, '1', 1, 1, 1, 2.498, 0.708, 0, 0, 0, 0, 1, 1, 0
3011, '1', 1, 1, 1, 14.512, 4.112, 0, 0, 0, 0, 1, 1, 0
3012, '1', 1, 1, 1, 0.302, 0.085, 0, 0, 0, 0, 1, 1, 0
3013, '1', 1, 1, 1, 34.52, 9.781, 0, 0, 0, 0, 1, 1, 0
3014, '1', 1, 1, 1, 11.765, 3.333, 0, 0, 0, 0, 1, 1, 0
3015, '1', 1, 1, 1, 2.868, 0.813, 0, 0, 0, 0, 1, 1, 0
3021, '1', 1, 1, 1, 1.038, 0.295, 0, 0, 0, 0, 1, 1, 0
3022, '1', 1, 1, 1, 13.149, 3.726, 0, 0, 0, 0, 1, 1, 0
3023, '1', 1, 1, 1, 5.565, 1.577, 0, 0, 0, 0, 1, 1, 0
3024, '1', 1, 1, 1, 5.417, 1.535, 0, 0, 0, 0, 1, 1, 0
3025, '1', 1, 1, 1, 7.312, 2.072, 0, 0, 0, 0, 1, 1, 0
3029, '1', 1, 1, 1, 2.602, 0.737, 0, 0, 0, 0, 1, 1, 0
3030, '1', 1, 1, 1, 69.364, 19.653, 0, 0, 0, 0, 1, 1, 0
3031, '1', 1, 1, 1, 7.878, 2.232, 0, 0, 0, 0, 1, 1, 0
3032, '1', 1, 1, 1, 38.962, 11.039, 0, 0, 0, 0, 1, 1, 0
3035, '1', 1, 1, 1, 1.853, 0.525, 0, 0, 0, 0, 1, 1, 0
3036, '1', 1, 1, 1, 3.103, 0.879, 0, 0, 0, 0, 1, 1, 0
3040, '1', 1, 1, 1, 7.811, 2.213, 0, 0, 0, 0, 1, 1, 0
3042, '1', 1, 1, 1, 4.681, 1.326, 0, 0, 0, 0, 1, 1, 0
3049, '1', 1, 1, 1, 5.659, 1.604, 0, 0, 0, 0, 1, 1, 0
3051, '1', 1, 1, 1, 77.69, 22.012, 0, 0, 0, 0, 1, 1, 0
3052, '1', 1, 1, 1, 4.318, 1.224, 0, 0, 0, 0, 1, 1, 0
3066, '1', 1, 1, 1, 11.783, 3.338, 0, 0, 0, 0, 1, 1, 0
3069, '1', 1, 1, 1, 2.039, 0.578, 0, 0, 0, 0, 1, 1, 0
3072, '1', 1, 1, 1, 3.2, 0.907, 0, 0, 0, 0, 1, 1, 0
3075, '1', 1, 1, 1, 6.515, 1.846, 0, 0, 0, 0, 1, 1, 0
3076, '1', 1, 1, 1, 5.772, 1.635, 0, 0, 0, 0, 1, 1, 0
3077, '1', 1, 1, 1, 36.711, 10.402, 0, 0, 0, 0, 1, 1, 0
3093, '1', 1, 1, 1, 2.698, 0.764, 0, 0, 0, 0, 1, 1, 0
3099, '1', 1, 1, 1, 6.458, 1.83, 0, 0, 0, 0, 1, 1, 0
3100, '1', 1, 1, 1, 4.559, 1.292, 0, 0, 0, 0, 1, 1, 0
3101, '1', 1, 1, 1, 5.043, 1.429, 0, 0, 0, 0, 1, 1, 0
3102, '1', 1, 1, 1, 40.24, 11.401, 0, 0, 0, 0, 1, 1, 0
3103, '1', 1, 1, 1, 21.024, 5.956, 0, 0, 0, 0, 1, 1, 0
3107, '1', 1, 1, 1, 7.95, 2.253, 0, 0, 0, 0, 1, 1, 0
3108, '1', 1, 1, 1, 12.578, 3.564, 0, 0, 0, 0, 1, 1, 0
3114, '1', 1, 1, 1, 52.567, 14.894, 0, 0, 0, 0, 1, 1, 0
3115, '1', 1, 1, 1, 5.121, 1.451, 0, 0, 0, 0, 1, 1, 0
3123, '1', 1, 1, 1, 35.327, 10.009, 0, 0, 0, 0, 1, 1, 0
3124, '1', 1, 1, 1, 34.51, 9.778, 0, 0, 0, 0, 1, 1, 0
3125, '1', 1, 1, 1, 48.797, 13.826, 0, 0, 0, 0, 1, 1, 0
3126, '1', 1, 1, 1, 5.324, 1.509, 0, 0, 0, 0, 1, 1, 0
3128, '1', 1, 1, 1, 1.508, 0.427, 0, 0, 0, 0, 1, 1, 0
3130, '1', 1, 1, 1, 49.277, 13.962, 0, 0, 0, 0, 1, 1, 0
3132, '1', 1, 1, 1, 5.114, 1.449, 0, 0, 0, 0, 1, 1, 0
3136, '1', 1, 1, 1, 25.108, 7.114, 0, 0, 0, 0, 1, 1, 0
3138, '1', 1, 1, 1, 5.853, 1.659, 0, 0, 0, 0, 1, 1, 0
3139, '1', 1, 1, 1, 7.976, 2.26, 0, 0, 0, 0, 1, 1, 0
3140, '1', 1, 1, 1, 0.119, 0.034, 0, 0, 0, 0, 1, 1, 0
3142, '1', 1, 1, 1, 3.779, 1.071, 0, 0, 0, 0, 1, 1, 0
3143, '1', 1, 1, 1, 3.077, 0.872, 0, 0, 0, 0, 1, 1, 0
3144, '1', 1, 1, 1, 2.971, 0.842, 0, 0, 0, 0, 1, 1, 0
3145, '1', 1, 1, 1, 1.572, 0.446, 0, 0, 0, 0, 1, 1, 0
3146, '1', 1, 1, 1, 6.436, 1.824, 0, 0, 0, 0, 1, 1, 0
3147, '1', 1, 1, 1, 18.586, 5.266, 0, 0, 0, 0, 1, 1, 0
4002, '1', 1, 1, 1, 0.591, 0.167, 0, 0, 0, 0, 1, 1, 0
4003, '1', 1, 1, 1, 74.636, 21.147, 0, 0, 0, 0, 1, 1, 0
4005, '1', 1, 1, 1, 96.24, 27.268, 0, 0, 0, 0, 1, 1, 0
4006, '1', 1, 1, 1, 1.615, 0.457, 0, 0, 0, 0, 1, 1, 0
4007, '1', 1, 1, 1, 107.684, 30.51, 0, 0, 0, 0, 1, 1, 0
4008, '1', 1, 1, 1, 19.052, 5.398, 0, 0, 0, 0, 1, 1, 0
4011, '1', 1, 1, 1, 9.411, 2.666, 0, 0, 0, 0, 1, 1, 0
4012, '1', 1, 1, 1, 8.056, 2.283, 0, 0, 0, 0, 1, 1, 0
4013, '1', 1, 1, 1, 54.147, 15.342, 0, 0, 0, 0, 1, 1, 0
4015, '1', 1, 1, 1, 93.7, 26.548, 0, 0, 0, 0, 1, 1, 0
4016, '1', 1, 1, 1, 3.662, 1.038, 0, 0, 0, 0, 1, 1, 0
4017, '1', 1, 1, 1, 52.513, 14.879, 0, 0, 0, 0, 1, 1, 0
4018, '1', 1, 1, 1, 4.185, 1.186, 0, 0, 0, 0, 1, 1, 0
4019, '1', 1, 1, 1, 79.64, 22.565, 0, 0, 0, 0, 1, 1, 0
4020, '1', 1, 1, 1, 69.077, 19.572, 0, 0, 0, 0, 1, 1, 0
4021, '1', 1, 1, 1, 18.746, 5.311, 0, 0, 0, 0, 1, 1, 0
4022, '1', 1, 1, 1, 3.263, 0.924, 0, 0, 0, 0, 1, 1, 0
4023, '1', 1, 1, 1, 2.969, 0.841, 0, 0, 0, 0, 1, 1, 0
4027, '1', 1, 1, 1, 38.181, 10.818, 0, 0, 0, 0, 1, 1, 0
4031, '1', 1, 1, 1, 1.611, 0.457, 0, 0, 0, 0, 1, 1, 0
4032, '1', 1, 1, 1, 53.584, 15.182, 0, 0, 0, 0, 1, 1, 0
4033, '1', 1, 1, 1, 74.024, 20.973, 0, 0, 0, 0, 1, 1, 0
4034, '1', 1, 1, 1, 22.07, 6.253, 0, 0, 0, 0, 1, 1, 0
4035, '1', 1, 1, 1, 46.415, 13.151, 0, 0, 0, 0, 1, 1, 0
4036, '1', 1, 1, 1, 20.563, 5.826, 0, 0, 0, 0, 1, 1, 0
4037, '1', 1, 1, 1, 16.841, 4.771, 0, 0, 0, 0, 1, 1, 0
4038, '1', 1, 1, 1, 48.844, 13.839, 0, 0, 0, 0, 1, 1, 0
4040, '1', 1, 1, 1, 132.313, 37.489, 0, 0, 0, 0, 1, 1, 0
4042, '1', 1, 1, 1, 126.166, 35.746, 0, 0, 0, 0, 1, 1, 0
4043, '1', 1, 1, 1, 1.451, 0.411, 0, 0, 0, 0, 1, 1, 0
4048, '1', 1, 1, 1, 7.683, 2.177, 0, 0, 0, 0, 1, 1, 0
...
0 / END OF LOAD DATA, BEGIN FIXED SHUNT DATA
0 / END OF FIXED SHUNT DATA, BEGIN GENERATOR DATA
1004, '1', 11.7, -30.38, 44.94, -30.38, 1.019273, 0, 0, 0, 1.0, 0, 0, 1, 1, 1, 11.7, 0, 1, 1, 0, 1, 0, 1, 0, 1, 0, 1
1006, '1', 10.4, -4.94, 7.31, -4.94, 1, 0, 0, 0, 1.0, 0, 0, 1, 1, 1, 10.4, 0, 1, 1, 0, 1, 0, 1, 0, 1, 0, 1
1009, '1', 6.3, -11.88, 17.57, -11.88, 1.0095603, 0, 0, 0, 1.0, 0, 0, 1, 1, 1, 6.3, 0, 1, 1, 0, 1, 0, 1, 0, 1, 0, 1
1011, '1', 0, 0, 0, 0, 1.0491491, 0, 0, 0, 1.0, 0, 0, 1, 1, 1, 0, 0, 1, 1, 0, 1, 0, 1, 0, 1, 0, 1
1021, '1', 145.3, -28.73, 42.49, -28.73, 1, 0, 0, 0, 1.0, 0, 0, 1, 1, 1, 145.3, 0, 1, 1, 0, 1, 0, 1, 0, 1, 0, 1
1023, '1', 7.4, -25.92, 38.34, -25.92, 1.01, 0, 0, 0, 1.0, 0, 0, 1, 1, 1, 7.4, 0, 1, 1, 0, 1, 0, 1, 0, 1, 0, 1
1026, '1', 99, -17.88, 26.45, -17.88, 1, 0, 0, 0, 1.0, 0, 0, 1, 1, 1, 99, 0, 1, 1, 0, 1, 0, 1, 0, 1, 0, 1
1033, '1', 0.5, -40.03, 59.21, -40.03, 1.0128158, 0, 0, 0, 1.0, 0, 0, 1, 1, 1, 0.5, 0, 1, 1, 0, 1, 0, 1, 0, 1, 0, 1
1035, '1', 74.1, -12.96, 19.17, -12.96, 1, 0, 0, 0, 1.0, 0, 0, 1, 1, 1, 74.1, 0, 1, 1, 0, 1, 0, 1, 0, 1, 0, 1
1039, '1', 5.5, -21.24, 31.42, -21.24, 1, 0, 0, 0, 1.0, 0, 0, 1, 1, 1, 5.5, 0, 1, 1, 0, 1, 0, 1, 0, 1, 0, 1
1042, '1', 62.254, -1.928, 25.96, -17.55, 1.0006146, 0, 0, 0, 1.0, 0, 0, 1, 0, 1, 105.3, 0, 1, 1, 0, 1, 0, 1, 0, 1, 0, 1
1043, '1', 50.8, -8.47, 12.52, -8.47, 1, 0, 0, 0, 1.0, 0, 0, 1, 1, 1, 50.8, 0, 1, 1, 0, 1, 0, 1, 0, 1, 0, 1
1048, '1', 97.672, -14.512, 165.53, -36.1, 1.0101814, 0, 0, 0, 1.0, 0, 0, 1, 0, 1, 325.2, 97.56, 1, 1, 0, 1, 0, 1, 0, 1, 0, 1
1049, '1', 119.663, 3.735, 165.53, -36.1, 1.0101814, 0, 0, 0, 1.0, 0, 0, 1, 0, 1, 325.2, 97.56, 1, 1, 0, 1, 0, 1, 0, 1, 0, 1
1050, '1', 27.834573, -9.92, 45.5, -9.92, 1.0008071, 0, 0, 0, 1.0, 0, 0, 1, 1, 1, 89.4, 26.82, 1, 1, 0, 1, 0, 1, 0, 1, 0, 1
1051, '1', 27.834573, -9.92, 45.5, -9.92, 1, 0, 0, 0, 1.0, 0, 0, 1, 1, 1, 89.4, 26.82, 1, 1, 0, 1, 0, 1, 0, 1, 0, 1
1052, '1', 27.834573, -9.92, 45.5, -9.92, 1.0027446, 0, 0, 0, 1.0, 0, 0, 1, 1, 1, 89.4, 26.82, 1, 1, 0, 1, 0, 1, 0, 1, 0, 1
1053, '1', 53.702, -19.85, 91.01, -19.85, 1.0175318, 0, 0, 0, 1.0, 0, 0, 1, 0, 1, 178.8, 53.64, 1, 1, 0, 1, 0, 1, 0, 1, 0, 1
1057, '1', 77.204, -9.401, 25.56, -17.28, 1.015, 0, 0, 0, 1.0, 0, 0, 1, 0, 1, 77.3, 0, 1, 1, 0, 1, 0, 1, 0, 1, 0, 1
1059, '1', 5.294, 2.85, 2.85, -0.62, 1.0260615, 0, 0, 0, 1.0, 0, 0, 1, 0, 1, 5.6, 1.68, 1, 1, 0, 1, 0, 1, 0, 1, 0, 1
1060, '1', 0.601, 1.02, 1.02, -0.22, 1.0260615, 0, 0, 0, 1.0, 0, 0, 1, 0, 1, 2, 0.6, 1, 1, 0, 1, 0, 1, 0, 1, 0, 1
1062, '1', -0.006, 0, 0, 0, 1.0128994, 0, 0, 0, 1.0, 0, 0, 1, 0, 1, 1.5, 0.45, 1, 1, 0, 1, 0, 1, 0, 1, 0, 1
1063, '1', 81.116, 0, 0, 0, 1.0128994, 0, 0, 0, 1.0, 0, 0, 1, 0, 1, 230, 69, 1, 1, 0, 1, 0, 1, 0, 1, 0, 1
1066, '1', 88.3, -20.52, 30.35, -20.52, 1, 0, 0, 0, 1.0, 0, 0, 1, 1, 1, 88.3, 0, 1, 1, 0, 1, 0, 1, 0, 1, 0, 1
1070, '1', 77.9, -23.11, 34.19, -23.11, 1.04, 0, 0, 0, 1.0, 0, 0, 1, 1, 1, 77.9, 0, 1, 1, 0, 1, 0, 1, 0, 1, 0, 1
1072, '1', 59.820424, -21.33, 97.8, -21.33, 1.01, 0, 0, 0, 1.0, 0, 0, 1, 1, 1, 192.13, 57.64, 1, 1, 0, 1, 0, 1, 0, 1, 0, 1
1073, '1', 59.820424, -21.33, 97.8, -21.33, 1.01, 0, 0, 0, 1.0, 0, 0, 1, 1, 1, 192.13, 57.64, 1, 1, 0, 1, 0, 1, 0, 1, 0, 1
1074, '1', 59.820424, -21.33, 97.8, -21.33, 1.01, 0, 0, 0, 1.0, 0, 0, 1, 1, 1, 192.13, 57.64, 1, 1, 0, 1, 0, 1, 0, 1, 0, 1
1075, '1', 59.820424, -21.33, 97.8, -21.33, 1.01, 0, 0, 0, 1.0, 0, 0, 1, 1, 1, 192.13, 57.64, 1, 1, 0, 1, 0, 1, 0, 1, 0, 1
1076, '1', 138.4, 2.153, 97.8, -21.33, 1.0133538, 0, 0, 0, 1.0, 0, 0, 1, 0, 1, 192.13, 57.64, 1, 1, 0, 1, 0, 1, 0, 1, 0, 1
1077, '1', 84.604, 0.338, 97.8, -21.33, 1.0133538, 0, 0, 0, 1.0, 0, 0, 1, 0, 1, 192.13, 57.64, 1, 1, 0, 1, 0, 1, 0, 1, 0, 1
1078, '1', 29.7338, -10.6, 48.61, -10.6, 1.01, 0, 0, 0, 1.0, 0, 0, 1, 1, 1, 95.5, 28.65, 1, 1, 0, 1, 0, 1, 0, 1, 0, 1
1079, '1', 29.7338, -10.6, 48.61, -10.6, 1.0536232, 0, 0, 0, 1.0, 0, 0, 1, 1, 1, 95.5, 28.65, 1, 1, 0, 1, 0, 1, 0, 1, 0, 1
1080, '1', 29.7338, -10.6, 48.61, -10.6, 1.01, 0, 0, 0, 1.0, 0, 0, 1, 1, 1, 95.5, 28.65, 1, 1, 0, 1, 0, 1, 0, 1, 0, 1
1081, '1', 86.049, -16.938, 145.83, -31.8, 1.0190051, 0, 0, 0, 1.0, 0, 0, 1, 0, 1, 286.5, 85.95, 1, 1, 0, 1, 0, 1, 0, 1, 0, 1
1082, '1', 62, -21.6, 31.95, -21.6, 1.0144902, 0, 0, 0, 1.0, 0, 0, 1, 1, 1, 62, 0, 1, 1, 0, 1, 0, 1, 0, 1, 0, 1
1084, '1', 97.4, -16.63, 24.6, -16.63, 1.0245016, 0, 0, 0, 1.0, 0, 0, 1, 1, 1, 97.4, 0, 1, 1, 0, 1, 0, 1, 0, 1, 0, 1
1088, '1', 34.9, -10.8, 15.97, -10.8, 1, 0, 0, 0, 1.0, 0, 0, 1, 1, 1, 34.9, 0, 1, 1, 0, 1, 0, 1, 0, 1, 0, 1
1090, '1', 111.9, -21.96, 32.48, -21.96, 1.02, 0, 0, 0, 1.0, 0, 0, 1, 1, 1, 111.9, 0, 1, 1, 0, 1, 0, 1, 0, 1, 0, 1
1090, '2', 26.4, -5.18, 7.67, -5.18, 1.02, 0, 0, 0, 1.0, 0, 0, 1, 1, 1, 26.4, 0, 1, 1, 0, 1, 0, 1, 0, 1, 0, 1
2004, '1', 0, 0, 199.43, -43.49, 1.0290791, 0, 0, 0, 1.0, 0, 0, 1, 0, 1, 391.8, 117.54, 1, 1, 0, 1, 0, 1, 0, 1, 0, 1
2005, '1', 0, 0, 199.43, -43.49, 1.0290791, 0, 0, 0, 1.0, 0, 0, 1, 0, 1, 391.8, 117.54, 1, 1, 0, 1, 0, 1, 0, 1, 0, 1
2006, '1', 117.675, -21.831, 199.43, -43.49, 1.0290791, 0, 0, 0, 1.0, 0, 0, 1, 0, 1, 391.8, 117.54, 1, 1, 0, 1, 0, 1, 0, 1, 0, 1
2013, '1', 24.3, -28.89, 42.73, -28.89, 1.0315402, 0, 0, 0, 1.0, 0, 0, 1, 1, 1, 24.3, 0, 1, 1, 0, 1, 0, 1, 0, 1, 0, 1
2019, '1', 56.825, -1.574, 46.43, -31.39, 1.0248397, 0, 0, 0, 1.0, 0, 0, 1, 0, 1, 57, 0, 1, 1, 0, 1, 0, 1, 0, 1, 0, 1
2023, '1', 25.945686, -9.25, 42.42, -9.25, 1.0266108, 0, 0, 0, 1.0, 0, 0, 1, 1, 1, 83.33, 25, 1, 1, 0, 1, 0, 1, 0, 1, 0, 1
2024, '1', 51.891486, -18.5, 84.83, -18.5, 1.0253134, 0, 0, 0, 1.0, 0, 0, 1, 1, 1, 166.67, 50, 1, 1, 0, 1, 0, 1, 0, 1, 0, 1
2042, '1', 15.3, -11.46, 16.95, -11.46, 1.0189193, 0, 0, 0, 1.0, 0, 0, 1, 1, 1, 15.3, 0, 1, 1, 0, 1, 0, 1, 0, 1, 0, 1
2056, '1', 5.896, -0.73, 2.8, -0.73, 1.03688, 0, 0, 0, 1.0, 0, 0, 1, 0, 1, 6, 1.8, 1, 1, 0, 1, 0, 1, 0, 1, 0, 1
2057, '1', 224.17106, -87.84, 335.52, -87.84, 1.0257153, 0, 0, 0, 1.0, 0, 0, 1, 1, 1, 720, 216, 1, 1, 0, 1, 0, 1, 0, 1, 0, 1
2059, '1', 4.3, -11.52, 17.04, -11.52, 1.0151026, 0, 0, 0, 1.0, 0, 0, 1, 1, 1, 4.3, 0, 1, 1, 0, 1, 0, 1, 0, 1, 0, 1
2062, '1', 40, -19.5, 28.84, -19.5, 1.02, 0, 0, 0, 1.0, 0, 0, 1, 1, 1, 40, 0, 1, 1, 0, 1, 0, 1, 0, 1, 0, 1
2071, '1', 126.4, -21.6, 31.95, -21.6, 1.0143395, 0, 0, 0, 1.0, 0, 0, 1, 1, 1, 126.4, 0, 1, 1, 0, 1, 0, 1, 0, 1, 0, 1
2076, '1', 9, -4.32, 6.39, -4.32, 1.0388658, 0, 0, 0, 1.0, 0, 0, 1, 1, 1, 9, 0, 1, 1, 0, 1, 0, 1, 0, 1, 0, 1
2078, '1', 16.9, -16.2, 23.96, -16.2, 1.02, 0, 0, 0, 1.0, 0, 0, 1, 1, 1, 16.9, 0, 1, 1, 0, 1, 0, 1, 0, 1, 0, 1
2083, '1', 20, -2.22, 10.18, -2.22, 1.0260251, 0, 0, 0, 1.0, 0, 0, 1, 1, 1, 20, 6, 1, 1, 0, 1, 0, 1, 0, 1, 0, 1
2084, '1', 18.784, -2.22, 10.18, -2.22, 1.0287197, 0, 0, 0, 1.0, 0, 0, 1, 0, 1, 20, 6, 1, 1, 0, 1, 0, 1, 0, 1, 0, 1
2085, '1', 39.968, -4.44, 20.36, -4.44, 1.0287197, 0, 0, 0, 1.0, 0, 0, 1, 0, 1, 40, 12, 1, 1, 0, 1, 0, 1, 0, 1, 0, 1
2089, '1', 11.4, -9.73, 14.4, -9.73, 1.0150885, 0, 0, 0, 1.0, 0, 0, 1, 1, 1, 11.4, 0, 1, 1, 0, 1, 0, 1, 0, 1, 0, 1
2094, '1', 1.892, -1.44, 2.13, -1.44, 1.0301065, 0, 0, 0, 1.0, 0, 0, 1, 0, 1, 1.9, 0, 1, 1, 0, 1, 0, 1, 0, 1, 0, 1
2095, '1', 15.336, -11.45, 16.93, -11.45, 1.0301065, 0, 0, 0, 1.0, 0, 0, 1, 0, 1, 15.4, 0, 1, 1, 0, 1, 0, 1, 0, 1, 0, 1
2099, '1', 0.2, -1.44, 2.13, -1.44, 1.0007407, 0, 0, 0, 1.0, 0, 0, 1, 1, 1, 0.2, 0, 1, 1, 0, 1, 0, 1, 0, 1, 0, 1
2100, '1', 3.5, -21.6, 31.95, -21.6, 1.0133774, 0, 0, 0, 1.0, 0, 0, 1, 1, 1, 3.5, 0, 1, 1, 0, 1, 0, 1, 0, 1, 0, 1
2103, '1', 0, 0, 136.28, -29.72, 1.0281729, 0, 0, 0, 1.0, 0, 0, 1, 0, 1, 267.73, 80.32, 1, 1, 0, 1, 0, 1, 0, 1, 0, 1
2104, '1', 80.413, -29.72, 136.28, -29.72, 1.0281729, 0, 0, 0, 1.0, 0, 0, 1, 0, 1, 267.73, 80.32, 1, 1, 0, 1, 0, 1, 0, 1, 0, 1
2105, '1', 0, 0, 136.28, -29.72, 1.0281729, 0, 0, 0, 1.0, 0, 0, 1, 0, 1, 267.73, 80.32, 1, 1, 0, 1, 0, 1, 0, 1, 0, 1
2115, '1', 57.50633, -20.5, 94.02, -20.5, 1.0219605, 0, 0, 0, 1.0, 0, 0, 1, 1, 1, 184.72, 55.41, 1, 1, 0, 1, 0, 1, 0, 1, 0, 1
2116, '1', 57.50633, -20.5, 94.02, -20.5, 1.0255505, 0, 0, 0, 1.0, 0, 0, 1, 1, 1, 184.72, 55.41, 1, 1, 0, 1, 0, 1, 0, 1, 0, 1
2117, '1', 57.50633, -20.5, 94.02, -20.5, 1.0204743, 0, 0, 0, 1.0, 0, 0, 1, 1, 1, 184.72, 55.41, 1, 1, 0, 1, 0, 1, 0, 1, 0, 1
2118, '1', 57.50633, -20.5, 94.02, -20.5, 1.0195533, 0, 0, 0, 1.0, 0, 0, 1, 1, 1, 184.72, 55.41, 1, 1, 0, 1, 0, 1, 0, 1, 0, 1
2119, '1', 57.50633, -20.5, 94.02, -20.5, 1.024687, 0, 0, 0, 1.0, 0, 0, 1, 1, 1, 184.72, 55.41, 1, 1, 0, 1, 0, 1, 0, 1, 0, 1
2120, '1', 57.50633, -20.5, 94.02, -20.5, 1.0200027, 0, 0, 0, 1.0, 0, 0, 1, 1, 1, 184.72, 55.41, 1, 1, 0, 1, 0, 1, 0, 1, 0, 1
2123, '1', 42, -26.16, 38.7, -26.16, 1.0259037, 0, 0, 0, 1.0, 0, 0, 1, 1, 1, 42, 0, 1, 1, 0, 1, 0, 1, 0, 1, 0, 1
2127, '1', 132, 28.230041, 61.47, -41.56, 1.04, 0, 0, 0, 1.0, 0, 0, 1, 1, 1, 132, 0, 1, 1, 0, 1, 0, 1, 0, 1, 0, 1
3004, '1', 21.9, -5.4, 7.99, -5.4, 1.0105977, 0, 0, 0, 1.0, 0, 0, 1, 1, 1, 21.9, 0, 1, 1, 0, 1, 0, 1, 0, 1, 0, 1
3017, '1', 38.5, -24.41, 36.1, -24.41, 1.01, 0, 0, 0, 1.0, 0, 0, 1, 1, 1, 38.5, 0, 1, 1, 0, 1, 0, 1, 0, 1, 0, 1
3020, '1', 29.5, -21.6, 31.95, -21.6, 1.03, 0, 0, 0, 1.0, 0, 0, 1, 1, 1, 29.5, 0, 1, 1, 0, 1, 0, 1, 0, 1, 0, 1
3028, '1', 68.7, -28.8, 42.6, -28.8, 1.04, 0, 0, 0, 1.0, 0, 0, 1, 1, 1, 68.7, 0, 1, 1, 0, 1, 0, 1, 0, 1, 0, 1
3034, '1', 45.5, -18.79, 27.8, -18.79, 1.03, 0, 0, 0, 1.0, 0, 0, 1, 1, 1, 45.5, 0, 1, 1, 0, 1, 0, 1, 0, 1, 0, 1
3039, '1', 93.6, -30.1, 44.52, -30.1, 1.04, 0, 0, 0, 1.0, 0, 0, 1, 1, 1, 93.6, 0, 1, 1, 0, 1, 0, 1, 0, 1, 0, 1
3043, '1', 0.39, -0.14, 0.66, -0.14, 1.0395248, 0, 0, 0, 1.0, 0, 0, 1, 0, 1, 1.3, 0.39, 1, 1, 0, 1, 0, 1, 0, 1, 0, 1
3044, '1', 26.851, 4.335, 45.5, -9.92, 1.0395248, 0, 0, 0, 1.0, 0, 0, 1, 0, 1, 89.4, 26.82, 1, 1, 0, 1, 0, 1, 0, 1, 0, 1
3045, '1', 0, 0, 227.52, -49.62, 1.0395248, 0, 0, 0, 1.0, 0, 0, 1, 0, 1, 447, 134.1, 1, 1, 0, 1, 0, 1, 0, 1, 0, 1
3048, '1', 110.3, -34.7, 51.33, -34.7, 1.0523237, 0, 0, 0, 1.0, 0, 0, 1, 1, 1, 110.3, 0, 1, 1, 0, 1, 0, 1, 0, 1, 0, 1
3055, '1', 47.1, -35.3, 52.22, -35.3, 1.04, 0, 0, 0, 1.0, 0, 0, 1, 1, 1, 47.1, 0, 1, 1, 0, 1, 0, 1, 0, 1, 0, 1
3056, '1', 47.1, -35.3, 52.22, -35.3, 1.04, 0, 0, 0, 1.0, 0, 0, 1, 1, 1, 47.1, 0, 1, 1, 0, 1, 0, 1, 0, 1, 0, 1
3057, '1', 47.1, -35.3, 52.22, -35.3, 1.04, 0, 0, 0, 1.0, 0, 0, 1, 1, 1, 47.1, 0, 1, 1, 0, 1, 0, 1, 0, 1, 0, 1
3060, '1', 88.7, -23.85, 35.28, -23.85, 1.04, 0, 0, 0, 1.0, 0, 0, 1, 1, 1, 88.7, 0, 1, 1, 0, 1, 0, 1, 0, 1, 0, 1
3061, '1', 0.3, -23.85, 35.28, -23.85, 1.04, 0, 0, 0, 1.0, 0, 0, 1, 1, 1, 0.3, 0, 1, 1, 0, 1, 0, 1, 0, 1, 0, 1
3062, '1', 88.7, -23.85, 35.28, -23.85, 1.04, 0, 0, 0, 1.0, 0, 0, 1, 1, 1, 88.7, 0, 1, 1, 0, 1, 0, 1, 0, 1, 0, 1
3063, '1', 88.7, -23.85, 35.28, -23.85, 1.04, 0, 0, 0, 1.0, 0, 0, 1, 1, 1, 88.7, 0, 1, 1, 0, 1, 0, 1, 0, 1, 0, 1
3065, '1', 23.6, -11.59, 17.15, -11.59, 1, 0, 0, 0, 1.0, 0, 0, 1, 1, 1, 23.6, 0, 1, 1, 0, 1, 0, 1, 0, 1, 0, 1
3068, '1', 53.2, -21.6, 31.95, -21.6, 1.04, 0, 0, 0, 1.0, 0, 0, 1, 1, 1, 53.2, 0, 1, 1, 0, 1, 0, 1, 0, 1, 0, 1
3071, '1', 3.5, -24.51, 36.25, -24.51, 1.0034569, 0, 0, 0, 1.0, 0, 0, 1, 1, 1, 3.5, 0, 1, 1, 0, 1, 0, 1, 0, 1, 0, 1
3074, '1', 2.4, -14.37, 21.26, -14.37, 1, 0, 0, 0, 1.0, 0, 0, 1, 1, 1, 2.4, 0, 1, 1, 0, 1, 0, 1, 0, 1, 0, 1
3081, '1', 167.6, -35.86, 53.04, -35.86, 1.04, 0, 0, 0, 1.0, 0, 0, 1, 1, 1, 167.6, 0, 1, 1, 0, 1, 0, 1, 0, 1, 0, 1
3084, '1', 120.1, -33.48, 49.52, -33.48, 1, 0, 0, 0, 1.0, 0, 0, 1, 1, 1, 120.1, 0, 1, 1, 0, 1, 0, 1, 0, 1, 0, 1
3086, '1', 27.2, -10.8, 15.97, -10.8, 1, 0, 0, 0, 1.0, 0, 0, 1, 1, 1, 27.2, 0, 1, 1, 0, 1, 0, 1, 0, 1, 0, 1
3087, '1', 27.14, -7.028, 15.97, -10.8, 1.0160613, 0, 0, 0, 1.0, 0, 0, 1, 0, 1, 27.2, 0, 1, 1, 0, 1, 0, 1, 0, 1, 0, 1
3092, '1', 67.4, -28.8, 42.6, -28.8, 1.04, 0, 0, 0, 1.0, 0, 0, 1, 1, 1, 67.4, 0, 1, 1, 0, 1, 0, 1, 0, 1, 0, 1
3095, '1', 55.4, -17.37, 25.69, -17.37, 1.04, 0, 0, 0, 1.0, 0, 0, 1, 1, 1, 55.4, 0, 1, 1, 0, 1, 0, 1, 0, 1, 0, 1
3098, '1', 39.7, -23.04, 34.08, -23.04, 1.04, 0, 0, 0, 1.0, 0, 0, 1, 1, 1, 39.7, 0, 1, 1, 0, 1, 0, 1, 0, 1, 0, 1
3105, '1', 0, -0.74, 17.071, -0.74, 1.0204916, 0, 0, 0, 1.0, 0, 0, 1, 1, 1, 0, 0, 1, 1, 0, 1, 0, 1, 0, 1, 0, 1
3106, '1', 0, -2.69, 62.477, -2.69, 1.0162818, 0, 0, 0, 1.0, 0, 0, 1, 1, 1, 0, 0, 1, 1, 0, 1, 0, 1, 0, 1, 0, 1
3110, '1', 23.8, -12.1, 17.89, -12.1, 1.04, 0, 0, 0, 1.0, 0, 0, 1, 1, 1, 23.8, 0, 1, 1, 0, 1, 0, 1, 0, 1, 0, 1
3112, '1', 67.7, -10.77, 15.93, -10.77, 1, 0, 0, 0, 1.0, 0, 0, 1, 1, 1, 67.7, 0, 1, 1, 0, 1, 0, 1, 0, 1, 0, 1
3113, '1', 10.7, -10.77, 15.93, -10.77, 1, 0, 0, 0, 1.0, 0, 0, 1, 1, 1, 10.7, 0, 1, 1, 0, 1, 0, 1, 0, 1, 0, 1
3117, '1', 46.2, -9.07, 13.42, -9.07, 1.0015836, 0, 0, 0, 1.0, 0, 0, 1, 1, 1, 46.2, 0, 1, 1, 0, 1, 0, 1, 0, 1, 0, 1
3118, '1', 26.5, -17.28, 25.56, -17.28, 1, 0, 0, 0, 1.0, 0, 0, 1, 1, 1, 26.5, 0, 1, 1, 0, 1, 0, 1, 0, 1, 0, 1
3120, '1', 0, 0, 0, 0, 1.0135051, 0, 0, 0, 1.0, 0, 0, 1, 1, 1, 0, 0, 1, 1, 0, 1, 0, 1, 0, 1, 0, 1
3122, '1', 110.8, -28.37, 41.96, -28.37, 1, 0, 0, 0, 1.0, 0, 0, 1, 1, 1, 110.8, 0, 1, 1, 0, 1, 0, 1, 0, 1, 0, 1
3127, '1', 38.9, -19.44, 28.76, -19.44, 1.0135745, 0, 0, 0, 1.0, 0, 0, 1, 1, 1, 38.9, 0, 1, 1, 0, 1, 0, 1, 0, 1, 0, 1
3129, '1', 45.2, -18.22, 26.94, -18.22, 1.0126191, 0, 0, 0, 1.0, 0, 0, 1, 1, 1, 45.2, 0, 1, 1, 0, 1, 0, 1, 0, 1, 0, 1
3131, '1', 26.2, -16.42, 24.28, -16.42, 1.02, 0, 0, 0, 1.0, 0, 0, 1, 1, 1, 26.2, 0, 1, 1, 0, 1, 0, 1, 0, 1, 0, 1
3133, '1', 15.39, 8.883, 26.11, -5.69, 1.0278201, 0, 0, 0, 1.0, 0, 0, 1, 0, 1, 51.3, 15.39, 1, 1, 0, 1, 0, 1, 0, 1, 0, 1
3133, '2', 15.39, 8.883, 26.11, -5.69, 1.0278201, 0, 0, 0, 1.0, 0, 0, 1, 0, 1, 51.3, 15.39, 1, 1, 0, 1, 0, 1, 0, 1, 0, 1
3133, '3', 15.39, 8.883, 26.11, -5.69, 1.0278201, 0, 0, 0, 1.0, 0, 0, 1, 0, 1, 51.3, 15.39, 1, 1, 0, 1, 0, 1, 0, 1, 0, 1
3137, '1', 24.2, -14.57, 21.56, -14.57, 1.028688, 0, 0, 0, 1.0, 0, 0, 1, 1, 1, 24.2, 0, 1, 1, 0, 1, 0, 1, 0, 1, 0, 1
3141, '1', 41.9, -13.18, 19.49, -13.18, 1.0158456, 0, 0, 0, 1.0, 0, 0, 1, 1, 1, 41.9, 0, 1, 1, 0, 1, 0, 1, 0, 1, 0, 1
4010, '1', 0.2, -29.03, 42.94, -29.03, 1.03, 0, 0, 0, 1.0, 0, 0, 1, 1, 1, 0.2, 0, 1, 1, 0, 1, 0, 1, 0, 1, 0, 1
4026, '1', 127.65296, -50.02, 191.06, -50.02, 1.03, 0, 0, 0, 1.0, 0, 0, 1, 1, 1, 410, 123, 1, 1, 0, 1, 0, 1, 0, 1, 0, 1
4030, '1', 193.78342, -75.93, 290.04, -75.93, 1.01, 0, 0, 0, 1.0, 0, 0, 1, 1, 1, 622.4, 186.72, 1, 1, 0, 1, 0, 1, 0, 1, 0, 1
4045, '1', 0, -1.54, 35.862, -1.54, 1.02, 0, 0, 0, 1.0, 0, 0, 1, 1, 1, 0, 0, 1, 1, 0, 1, 0, 1, 0, 1, 0, 1
4046, '1', 0, -0.47, 10.936, -0.47, 1.02, 0, 0, 0, 1.0, 0, 0, 1, 1, 1, 0, 0, 1, 1, 0, 1, 0, 1, 0, 1, 0, 1
4047, '1', 0, -3.23, 75.102, -3.23, 1.02, 0, 0, 0, 1.0, 0, 0, 1, 1, 1, 0, 0, 1, 1, 0, 1, 0, 1, 0, 1, 0, 1
4050, '1', 12.8, -28.8, 42.6, -28.8, 1, 0, 0, 0, 1.0, 0, 0, 1, 1, 1, 12.8, 0, 1, 1, 0, 1, 0, 1, 0, 1, 0, 1
4052, '1', 13.761612, -4.91, 22.5, -4.91, 1.04, 0, 0, 0, 1.0, 0, 0, 1, 1, 1, 44.2, 13.26, 1, 1, 0, 1, 0, 1, 0, 1, 0, 1
4058, '1', 44.834211, -15.98, 73.3, -15.98, 1.03, 0, 0, 0, 1.0, 0, 0, 1, 1, 1, 144, 43.2, 1, 1, 0, 1, 0, 1, 0, 1, 0, 1
4059, '1', 44.834211, -15.98, 73.3, -15.98, 1.03, 0, 0, 0, 1.0, 0, 0, 1, 1, 1, 144, 43.2, 1, 1, 0, 1, 0, 1, 0, 1, 0, 1
4060, '1', 44.834211, -15.98, 73.3, -15.98, 1.03, 0, 0, 0, 1.0, 0, 0, 1, 1, 1, 144, 43.2, 1, 1, 0, 1, 0, 1, 0, 1, 0, 1
4061, '1', 53.65572, -19.13, 87.72, -19.13, 1.03, 0, 0, 0, 1.0, 0, 0, 1, 1, 1, 172.33, 51.7, 1, 1, 0, 1, 0, 1, 0, 1, 0, 1
4062, '1', 53.65572, -19.13, 87.72, -19.13, 1.03, 0, 0, 0, 1.0, 0, 0, 1, 1, 1, 172.33, 51.7, 1, 1, 0, 1, 0, 1, 0, 1, 0, 1
4063, '1', 53.65572, -19.13, 87.72, -19.13, 1.03, 0, 0, 0, 1.0, 0, 0, 1, 1, 1, 172.33, 51.7, 1, 1, 0, 1, 0, 1, 0, 1, 0, 1
4065, '1', 14.633388, -5.22, 23.92, -5.22, 1.02, 0, 0, 0, 1.0, 0, 0, 1, 1, 1, 47, 14.1, 1, 1, 0, 1, 0, 1, 0, 1, 0, 1
4075, '1', 52.961, 24.366, 89.75, -19.57, 1.015677, 0, 0, 0, 1.0, 0, 0, 1, 0, 1, 176.33, 52.9, 1, 1, 0, 1, 0, 1, 0, 1, 0, 1
4076, '1', 54.901115, -19.57, 89.75, -19.57, 1.03, 0, 0, 0, 1.0, 0, 0, 1, 1, 1, 176.33, 52.9, 1, 1, 0, 1, 0, 1, 0, 1, 0, 1
4077, '1', 54.901115, -19.57, 89.75, -19.57, 1.03, 0, 0, 0, 1.0, 0, 0, 1, 1, 1, 176.33, 52.9, 1, 1, 0, 1, 0, 1, 0, 1, 0, 1
4082, '1', 75.782271, -27.02, 123.89, -27.02, 1.04, 0, 0, 0, 1.0, 0, 0, 1, 1, 1, 243.4, 73.02, 1, 1, 0, 1, 0, 1, 0, 1, 0, 1
4083, '1', 75.782271, -27.02, 123.89, -27.02, 1.04, 0, 0, 0, 1.0, 0, 0, 1, 1, 1, 243.4, 73.02, 1, 1, 0, 1, 0, 1, 0, 1, 0, 1
4084, '1', 75.782271, -27.02, 123.89, -27.02, 1.04, 0, 0, 0, 1.0, 0, 0, 1, 1, 1, 243.4, 73.02, 1, 1, 0, 1, 0, 1, 0, 1, 0, 1
4085, '1', 109.59474, -39.07, 179.17, -39.07, 1.04, 0, 0, 0, 1.0, 0, 0, 1, 1, 1, 352, 105.6, 1, 1, 0, 1, 0, 1, 0, 1, 0, 1
4090, '1', 1.399, 0.533, 0.65, -0.17, 1.0097861, 0, 0, 0, 1.0, 0, 0, 1, 0, 1, 1.4, 0.42, 1, 1, 0, 1, 0, 1, 0, 1, 0, 1
4091, '1', 7.3166942, -2.87, 10.95, -2.87, 1.01, 0, 0, 0, 1.0, 0, 0, 1, 1, 1, 23.5, 7.05, 1, 1, 0, 1, 0, 1, 0, 1, 0, 1
4092, '1', 7.594, 2.461, 3.54, -0.93, 1.0097861, 0, 0, 0, 1.0, 0, 0, 1, 0, 1, 7.6, 2.28, 1, 1, 0, 1, 0, 1, 0, 1, 0, 1
4093, '1', 8.7177633, -3.42, 13.05, -3.42, 1.01, 0, 0, 0, 1.0, 0, 0, 1, 1, 1, 28, 8.4, 1, 1, 0, 1, 0, 1, 0, 1, 0, 1
4094, '1', 8.7177633, -3.42, 13.05, -3.42, 1.01, 0, 0, 0, 1.0, 0, 0, 1, 1, 1, 28, 8.4, 1, 1, 0, 1, 0, 1, 0, 1, 0, 1
4095, '1', 8.7177633, -3.42, 13.05, -3.42, 1.01, 0, 0, 0, 1.0, 0, 0, 1, 1, 1, 28, 8.4, 1, 1, 0, 1, 0, 1, 0, 1, 0, 1
4096, '1', 26.298, 0.043, 13.05, -3.42, 1.0097861, 0, 0, 0, 1.0, 0, 0, 1, 0, 1, 28, 8.4, 1, 1, 0, 1, 0, 1, 0, 1, 0, 1
4097, '1', 8.7177633, -3.42, 13.05, -3.42, 1.01, 0, 0, 0, 1.0, 0, 0, 1, 1, 1, 28, 8.4, 1, 1, 0, 1, 0, 1, 0, 1, 0, 1
4098, '1', 26.298, -0.247, 13.05, -3.42, 1.0097861, 0, 0, 0, 1.0, 0, 0, 1, 0, 1, 28, 8.4, 1, 1, 0, 1, 0, 1, 0, 1, 0, 1
4105, '1', 19, -25.92, 38.34, -25.92, 1.01, 0, 0, 0, 1.0, 0, 0, 1, 1, 1, 19, 0, 1, 1, 0, 1, 0, 1, 0, 1, 0, 1
4115, '1', 41.035757, -14.63, 67.09, -14.63, 1.04, 0, 0, 0, 1.0, 0, 0, 1, 1, 1, 131.8, 39.54, 1, 1, 0, 1, 0, 1, 0, 1, 0, 1
4116, '1', 41.035757, -14.63, 67.09, -14.63, 1.04, 0, 0, 0, 1.0, 0, 0, 1, 1, 1, 131.8, 39.54, 1, 1, 0, 1, 0, 1, 0, 1, 0, 1
4133, '1', 10.092, -3.73, 17.1, -3.73, 1.0178803, 0, 0, 0, 1.0, 0, 0, 1, 0, 1, 33.6, 10.08, 1, 1, 0, 1, 0, 1, 0, 1, 0, 1
4134, '1', 10.461316, -3.73, 17.1, -3.73, 1.0125403, 0, 0, 0, 1.0, 0, 0, 1, 1, 1, 33.6, 10.08, 1, 1, 0, 1, 0, 1, 0, 1, 0, 1
4135, '1', 10.461316, -3.73, 17.1, -3.73, 1.0129352, 0, 0, 0, 1.0, 0, 0, 1, 1, 1, 33.6, 10.08, 1, 1, 0, 1, 0, 1, 0, 1, 0, 1
4136, '1', 10.461316, -3.73, 17.1, -3.73, 1.0112365, 0, 0, 0, 1.0, 0, 0, 1, 1, 1, 33.6, 10.08, 1, 1, 0, 1, 0, 1, 0, 1, 0, 1
4137, '1', 20.183, -7.46, 34.2, -7.46, 1.0178803, 0, 0, 0, 1.0, 0, 0, 1, 0, 1, 67.2, 20.16, 1, 1, 0, 1, 0, 1, 0, 1, 0, 1
4138, '1', 0, -7.33, 33.59, -7.33, 1.0178803, 0, 0, 0, 1.0, 0, 0, 1, 0, 1, 66, 19.8, 1, 1, 0, 1, 0, 1, 0, 1, 0, 1
4142, '1', 7.7, -27.07, 40.04, -27.07, 1.04, 0, 0, 0, 1.0, 0, 0, 1, 1, 1, 7.7, 0, 1, 1, 0, 1, 0, 1, 0, 1, 0, 1
4153, '1', 20.3, -40.78, 60.32, -40.78, 1.04, 0, 0, 0, 1.0, 0, 0, 1, 1, 1, 20.3, 0, 1, 1, 0, 1, 0, 1, 0, 1, 0, 1
4160, '1', 61.574431, -21.95, 100.66, -21.95, 1.03, 0, 0, 0, 1.0, 0, 0, 1, 1, 1, 197.77, 59.33, 1, 1, 0, 1, 0, 1, 0, 1, 0, 1
4161, '1', 61.574431, -21.95, 100.66, -21.95, 1.03, 0, 0, 0, 1.0, 0, 0, 1, 1, 1, 197.77, 59.33, 1, 1, 0, 1, 0, 1, 0, 1, 0, 1
4162, '1', 61.574431, -21.95, 100.66, -21.95, 1.03, 0, 0, 0, 1.0, 0, 0, 1, 1, 1, 197.77, 59.33, 1, 1, 0, 1, 0, 1, 0, 1, 0, 1
4163, '1', 8.453, 4.58, 4.58, -1, 1.0219257, 0, 0, 0, 1.0, 0, 0, 1, 0, 1, 9, 2.7, 1, 1, 0, 1, 0, 1, 0, 1, 0, 1
4166, '1', 14.4, -28.94, 42.81, -28.94, 1.0104189, 0, 0, 0, 1.0, 0, 0, 1, 1, 1, 14.4, 0, 1, 1, 0, 1, 0, 1, 0, 1, 0, 1
4177, '1', 135.7, -21.6, 31.95, -21.6, 1.04, 0, 0, 0, 1.0, 0, 0, 1, 1, 1, 135.7, 0, 1, 1, 0, 1, 0, 1, 0, 1, 0, 1
4181, '1', 17.6, -28.81, 42.62, -28.81, 1.0307176, 0, 0, 0, 1.0, 0, 0, 1, 1, 1, 17.6, 0, 1, 1, 0, 1, 0, 1, 0, 1, 0, 1
4183, '1', 65.4, -29.23, 43.24, -29.23, 1.0256234, 0, 0, 0, 1.0, 0, 0, 1, 1, 1, 65.4, 0, 1, 1, 0, 1, 0, 1, 0, 1, 0, 1
4192, '1', 23.351152, -8.33, 38.17, -8.33, 1.02, 0, 0, 0, 1.0, 0, 0, 1, 1, 1, 75, 22.5, 1, 1, 0, 1, 0, 1, 0, 1, 0, 1
4192, '10', 57.215549, -20.4, 93.54, -20.4, 1.02, 0, 0, 0, 1.0, 0, 0, 1, 1, 1, 183.77, 55.13, 1, 1, 0, 1, 0, 1, 0, 1, 0, 1
4192, '2', 23.981, 9.437, 12.22, -2.66, 1.02, 0, 0, 0, 1.0, 0, 0, 1, 0, 1, 24, 7.2, 1, 1, 0, 1, 0, 1, 0, 1, 0, 1
4192, '3', 18.99227, -6.77, 31.05, -6.77, 1.02, 0, 0, 0, 1.0, 0, 0, 1, 1, 1, 61, 18.3, 1, 1, 0, 1, 0, 1, 0, 1, 0, 1
4192, '4', 3.2380264, -1.15, 5.29, -1.15, 1.02, 0, 0, 0, 1.0, 0, 0, 1, 1, 1, 10.4, 3.12, 1, 1, 0, 1, 0, 1, 0, 1, 0, 1
4192, '5', 83.1301, -29.64, 135.9, -29.64, 1.02, 0, 0, 0, 1.0, 0, 0, 1, 1, 1, 267, 80.1, 1, 1, 0, 1, 0, 1, 0, 1, 0, 1
4192, '6', 83.1301, -29.64, 135.9, -29.64, 1.02, 0, 0, 0, 1.0, 0, 0, 1, 1, 1, 267, 80.1, 1, 1, 0, 1, 0, 1, 0, 1, 0, 1
4192, '7', 83.1301, -29.64, 135.9, -29.64, 1.02, 0, 0, 0, 1.0, 0, 0, 1, 1, 1, 267, 80.1, 1, 1, 0, 1, 0, 1, 0, 1, 0, 1
4192, '8', 57.215549, -20.4, 93.54, -20.4, 1.02, 0, 0, 0, 1.0, 0, 0, 1, 1, 1, 183.77, 55.13, 1, 1, 0, 1, 0, 1, 0, 1, 0, 1
4192, '9', 57.215549, -20.4, 93.54, -20.4, 1.02, 0, 0, 0, 1.0, 0, 0, 1, 1, 1, 183.77, 55.13, 1, 1, 0, 1, 0, 1, 0, 1, 0, 1
4194, '1', 13.1, -29.03, 42.94, -29.03, 1.0108855, 0, 0, 0, 1.0, 0, 0, 1, 1, 1, 13.1, 0, 1, 1, 0, 1, 0, 1, 0, 1, 0, 1
4195, '1', 2.1, -13.25, 19.6, -13.25, 1.0312633, 0, 0, 0, 1.0, 0, 0, 1, 1, 1, 2.1, 0, 1, 1, 0, 1, 0, 1, 0, 1, 0, 1
5020, '1', 6.6, -17.28, 25.56, -17.28, 1.0332835, 0, 0, 0, 1.0, 0, 0, 1, 1, 1, 6.6, 0, 1, 1, 0, 1, 0, 1, 0, 1, 0, 1
5023, '1', 4.538, 2.44, 2.44, -0.53, 1.025859, 0, 0, 0, 1.0, 0, 0, 1, 0, 1, 4.8, 1.44, 1, 1, 0, 1, 0, 1, 0, 1, 0, 1
5035, '1', 4.197, -0.47, 2.14, -0.47, 1.0224022, 0, 0, 0, 1.0, 0, 0, 1, 0, 1, 4.2, 1.26, 1, 1, 0, 1, 0, 1, 0, 1, 0, 1
5036, '1', 6.05, 0.178, 3.26, -0.71, 1.0224022, 0, 0, 0, 1.0, 0, 0, 1, 0, 1, 6.4, 1.92, 1, 1, 0, 1, 0, 1, 0, 1, 0, 1
5037, '1', 96.040731, -34.24, 157.01, -34.24, 1.02, 0, 0, 0, 1.0, 0, 0, 1, 1, 1, 308.47, 92.54, 1, 1, 0, 1, 0, 1, 0, 1, 0, 1
5038, '1', 96.040731, -34.24, 157.01, -34.24, 1.02, 0, 0, 0, 1.0, 0, 0, 1, 1, 1, 308.47, 92.54, 1, 1, 0, 1, 0, 1, 0, 1, 0, 1
5039, '1', 96.040731, -34.24, 157.01, -34.24, 1.0206445, 0, 0, 0, 1.0, 0, 0, 1, 1, 1, 308.47, 92.54, 1, 1, 0, 1, 0, 1, 0, 1, 0, 1
5040, '1', 96.040731, -34.24, 157.01, -34.24, 1.02, 0, 0, 0, 1.0, 0, 0, 1, 1, 1, 308.47, 92.54, 1, 1, 0, 1, 0, 1, 0, 1, 0, 1
5041, '1', 96.040731, -34.24, 157.01, -34.24, 1.02, 0, 0, 0, 1.0, 0, 0, 1, 1, 1, 308.47, 92.54, 1, 1, 0, 1, 0, 1, 0, 1, 0, 1
5042, '1', 96.040731, -34.24, 157.01, -34.24, 1.02, 0, 0, 0, 1.0, 0, 0, 1, 1, 1, 308.47, 92.54, 1, 1, 0, 1, 0, 1, 0, 1, 0, 1
5051, '1', 26.371234, -9.4, 43.11, -9.4, 1.0271237, 0, 0, 0, 1.0, 0, 0, 1, 1, 1, 84.7, 25.41, 1, 1, 0, 1, 0, 1, 0, 1, 0, 1
5057, '1', 317.095, -35.23, 161.53, -35.23, 1.03539, 0, 0, 0, 1.0, 0, 0, 1, 0, 1, 317.35, 95.2, 1, 1, 0, 1, 0, 1, 0, 1, 0, 1
5058, '1', 98.801507, -35.23, 161.53, -35.23, 1.0289205, 0, 0, 0, 1.0, 0, 0, 1, 1, 1, 317.35, 95.2, 1, 1, 0, 1, 0, 1, 0, 1, 0, 1
5065, '1', 10.6, -1.18, 5.4, -1.18, 1.0267819, 0, 0, 0, 1.0, 0, 0, 1, 1, 1, 10.6, 3.18, 1, 1, 0, 1, 0, 1, 0, 1, 0, 1
5066, '1', 1.799, 0.92, 0.92, -0.2, 1.0258352, 0, 0, 0, 1.0, 0, 0, 1, 0, 1, 1.8, 0.54, 1, 1, 0, 1, 0, 1, 0, 1, 0, 1
5067, '1', 136.45379, -48.65, 223.08, -48.65, 1.03, 0, 0, 0, 1.0, 0, 0, 1, 1, 1, 438.27, 131.48, 1, 1, 0, 1, 0, 1, 0, 1, 0, 1
5068, '1', 136.45379, -48.65, 223.08, -48.65, 1.03, 0, 0, 0, 1.0, 0, 0, 1, 1, 1, 438.27, 131.48, 1, 1, 0, 1, 0, 1, 0, 1, 0, 1
5069, '1', 136.45379, -48.65, 223.08, -48.65, 1.03, 0, 0, 0, 1.0, 0, 0, 1, 1, 1, 438.27, 131.48, 1, 1, 0, 1, 0, 1, 0, 1, 0, 1
5089, '1', 123.866, -2.05, 47.569, -2.05, 1.0275365, 0, 0, 0, 1.0, 0, 0, 1, 0, 1, 123.9, 0, 1, 1, 0, 1, 0, 1, 0, 1, 0, 1
...
0 / END OF GENERATOR DATA, BEGIN BRANCH DATA
1001, 1064, '1', 0.00524, 0.0358, 0.00609, 221, 221, 221, 0, 0, 0, 0, 1, 1, 0, 1, 1, 0, 1, 0, 1, 0, 1
1001, 1064, '2', 0.00524, 0.0358, 0.00609, 221, 221, 221, 0, 0, 0, 0, 1, 1, 0, 1, 1, 0, 1, 0, 1, 0, 1
1001, 1071, '1', 0.00435, 0.02808, 0.00536, 221, 221, 221, 0, 0, 0, 0, 1, 1, 0, 1, 1, 0, 1, 0, 1, 0, 1
1001, 1071, '2', 0.00435, 0.02808, 0.00536, 221, 221, 221, 0, 0, 0, 0, 1, 1, 0, 1, 1, 0, 1, 0, 1, 0, 1
1002, 1007, '1', 0.07776, 0.46693, 0.06336, 98, 98, 98, 0, 0, 0, 0, 1, 1, 0, 1, 1, 0, 1, 0, 1, 0, 1
1010, 1002, '1', 0.05552, 0.1357, 0.01777, 98, 98, 98, 0, 0, 0, 0, 1, 1, 0, 1, 1, 0, 1, 0, 1, 0, 1
1022, 1003, '1', 0.00485, 0.02012, 0.00341, 221, 221, 221, 0, 0, 0, 0, 1, 1, 0, 1, 1, 0, 1, 0, 1, 0, 1
1055, 1003, '1', 0.01574, 0.03782, 0.00513, 98, 98, 98, 0, 0, 0, 0, 1, 1, 0, 1, 1, 0, 1, 0, 1, 0, 1
1004, 3133, '1', 0.0042, 0.03, 0.055, 523, 523, 523, 0, 0, 0, 0, 1, 1, 0, 1, 1, 0, 1, 0, 1, 0, 1
1025, 1005, '1', 0.01842, 0.0821, 0.01204, 149, 149, 149, 0, 0, 0, 0, 1, 1, 0, 1, 1, 0, 1, 0, 1, 0, 1
1005, 1061, '1', 0.00599, 0.02484, 0.00422, 221, 221, 221, 0, 0, 0, 0, 0, 1, 0, 1, 1, 0, 1, 0, 1, 0, 1
1067, 1005, '1', 0.01711, 0.04181, 0.00548, 98, 98, 98, 0, 0, 0, 0, 1, 1, 0, 1, 1, 0, 1, 0, 1, 0, 1
1007, 1015, '1', 0.06224, 0.37375, 0.05072, 98, 98, 98, 0, 0, 0, 0, 1, 1, 0, 1, 1, 0, 1, 0, 1, 0, 1
1031, 1007, '1', 0.04803, 0.27434, 0.04123, 98, 98, 98, 0, 0, 0, 0, 1, 1, 0, 1, 1, 0, 1, 0, 1, 0, 1
1008, 1032, '1', 0.04501, 0.11002, 0.01441, 98, 98, 98, 0, 0, 0, 0, 1, 1, 0, 1, 1, 0, 1, 0, 1, 0, 1
1008, 1069, '1', 0.0083, 0.03628, 0.00553, 149, 149, 149, 0, 0, 0, 0, 1, 1, 0, 1, 1, 0, 1, 0, 1, 0, 1
1010, 1015, '1', 0.04703, 0.28243, 0.03833, 98, 98, 98, 0, 0, 0, 0, 1, 1, 0, 1, 1, 0, 1, 0, 1, 0, 1
1010, 1030, '1', 0.0616, 0.3699, 0.0502, 98, 98, 98, 0, 0, 0, 0, 1, 1, 0, 1, 1, 0, 1, 0, 1, 0, 1
1012, 1087, '1', 0.04934, 0.20469, 0.03473, 149, 149, 149, 0, 0, 0, 0, 1, 1, 0, 1, 1, 0, 1, 0, 1, 0, 1
3051, 1012, '1', 0.0571, 0.24977, 0.03804, 149, 149, 149, 0, 0, 0, 0, 1, 1, 0, 1, 1, 0, 1, 0, 1, 0, 1
1013, 1031, '1', 0.04509, 0.27078, 0.03675, 98, 98, 98, 0, 0, 0, 0, 1, 1, 0, 1, 1, 0, 1, 0, 1, 0, 1
1047, 1013, '1', 0.00947, 0.06117, 0.01167, 221, 221, 221, 0, 0, 0, 0, 1, 1, 0, 1, 1, 0, 1, 0, 1, 0, 1
1086, 1013, '1', 0.079, 0.19311, 0.02529, 98, 98, 98, 0, 0, 0, 0, 1, 1, 0, 1, 1, 0, 1, 0, 1, 0, 1
1014, 1047, '1', 0.03566, 0.14794, 0.0251, 149, 149, 149, 0, 0, 0, 0, 1, 1, 0, 1, 1, 0, 1, 0, 1, 0, 1
1014, 1083, '1', 0.04105, 0.18293, 0.02682, 149, 149, 149, 0, 0, 0, 0, 1, 1, 0, 1, 1, 0, 1, 0, 1, 0, 1
1016, 1034, '1', 0.01828, 0.10976, 0.01489, 98, 98, 98, 0, 0, 0, 0, 1, 1, 0, 1, 1, 0, 1, 0, 1, 0, 1
1068, 1016, '1', 0.02773, 0.15837, 0.0238, 98, 98, 98, 0, 0, 0, 0, 1, 1, 0, 1, 1, 0, 1, 0, 1, 0, 1
1018, 1017, '1', 0.03227, 0.07887, 0.01033, 98, 98, 98, 0, 0, 0, 0, 1, 1, 0, 1, 1, 0, 1, 0, 1, 0, 1
1017, 1029, '1', 0.03244, 0.14188, 0.02161, 149, 149, 149, 0, 0, 0, 0, 1, 1, 0, 1, 1, 0, 1, 0, 1, 0, 1
1037, 1017, '1', 0.00752, 0.03352, 0.00491, 221, 221, 221, 0, 0, 0, 0, 1, 1, 0, 1, 1, 0, 1, 0, 1, 0, 1
1047, 1017, '1', 0.036, 0.156, 0.024, 150, 150, 150, 0, 0, 0, 0, 1, 1, 0, 1, 1, 0, 1, 0, 1, 0, 1
1024, 1018, '1', 0.01094, 0.06572, 0.00892, 98, 98, 98, 0, 0, 0, 0, 1, 1, 0, 1, 1, 0, 1, 0, 1, 0, 1
1019, 1040, '1', 0.04978, 0.20651, 0.03504, 149, 149, 149, 0, 0, 0, 0, 1, 1, 0, 1, 1, 0, 1, 0, 1, 0, 1
1019, 1045, '1', 0.01522, 0.0372, 0.00487, 221, 221, 221, 0, 0, 0, 0, 1, 1, 0, 1, 1, 0, 1, 0, 1, 0, 1
1019, 1071, '1', 0.0044, 0.028, 0.0054, 225, 225, 225, 0, 0, 0, 0, 1, 1, 0, 1, 1, 0, 1, 0, 1, 0, 1
1071, 1019, '2', 0.0044, 0.028, 0.0054, 225, 225, 225, 0, 0, 0, 0, 1, 1, 0, 1, 1, 0, 1, 0, 1, 0, 1
1019, 1084, '1', 0.03, 0.16, 0.025, 220, 220, 220, 0, 0, 0, 0, 1, 1, 0, 1, 1, 0, 1, 0, 1, 0, 1
1025, 1020, '1', 0.00828, 0.03434, 0.00583, 149, 149, 149, 0, 0, 0, 0, 1, 1, 0, 1, 1, 0, 1, 0, 1, 0, 1
1084, 1020, '1', 0.01056, 0.06337, 0.0086, 221, 221, 221, 0, 0, 0, 0, 1, 1, 0, 1, 1, 0, 1, 0, 1, 0, 1
1020, 3059, '1', 0.0189, 0.06, 0.006, 300, 300, 300, 0, 0, 0, 0, 1, 1, 0, 1, 1, 0, 1, 0, 1, 0, 1
1020, 3130, '1', 0.00996, 0.06938, 0.01134, 221, 221, 221, 0, 0, 0, 0, 1, 1, 0, 1, 1, 0, 1, 0, 1, 0, 1
1022, 1028, '1', 0.01433, 0.09253, 0.01765, 221, 221, 221, 0, 0, 0, 0, 1, 1, 0, 1, 1, 0, 1, 0, 1, 0, 1
1022, 1028, '2', 0.01433, 0.09253, 0.01765, 221, 221, 221, 0, 0, 0, 0, 1, 1, 0, 1, 1, 0, 1, 0, 1, 0, 1
1024, 1090, '1', 0.01414, 0.06303, 0.00924, 149, 149, 149, 0, 0, 0, 0, 1, 1, 0, 1, 1, 0, 1, 0, 1, 0, 1
1027, 1045, '1', 0.02505, 0.10957, 0.01669, 221, 221, 221, 0, 0, 0, 0, 1, 1, 0, 1, 1, 0, 1, 0, 1, 0, 1
1056, 1027, '1', 0.03121, 0.0763, 0.00999, 250, 250, 250, 0, 0, 0, 0, 1, 1, 0, 1, 1, 0, 1, 0, 1, 0, 1
1028, 3109, '1', 0.00428, 0.01875, 0.00286, 250, 250, 250, 0, 0, 0, 0, 1, 1, 0, 1, 1, 0, 1, 0, 1, 0, 1
1029, 1056, '1', 0.02054, 0.11733, 0.01763, 221, 221, 221, 0, 0, 0, 0, 1, 1, 0, 1, 1, 0, 1, 0, 1, 0, 1
1030, 1038, '1', 0.07404, 0.42285, 0.06354, 98, 98, 98, 0, 0, 0, 0, 1, 1, 0, 1, 1, 0, 1, 0, 1, 0, 1
1083, 1030, '1', 0.06537, 0.37334, 0.0561, 98, 98, 98, 0, 0, 0, 0, 1, 1, 0, 1, 1, 0, 1, 0, 1, 0, 1
1032, 1036, '1', 0.01956, 0.11746, 0.01594, 98, 98, 98, 0, 0, 0, 0, 1, 1, 0, 1, 1, 0, 1, 0, 1, 0, 1
1038, 1032, '1', 0.045, 0.11, 0.015, 155, 155, 155, 0, 0, 0, 0, 1, 1, 0, 1, 1, 0, 1, 0, 1, 0, 1
1033, 1081, '1', 0.003, 0.031, 0.059, 548, 548, 548, 0, 0, 0, 0, 1, 1, 0, 1, 1, 0, 1, 0, 1, 0, 1
1033, 3050, '1', 0.0139, 0.136, 0.262, 647, 647, 647, 0, 0, 0, 0, 1, 1, 0, 1, 1, 0, 1, 0, 1, 0, 1
1067, 1034, '1', 0.00795, 0.04771, 0.00647, 98, 98, 98, 0, 0, 0, 0, 1, 1, 0, 1, 1, 0, 1, 0, 1, 0, 1
1088, 1036, '1', 0.02065, 0.11793, 0.01772, 98, 98, 98, 0, 0, 0, 0, 1, 1, 0, 1, 1, 0, 1, 0, 1, 0, 1
1037, 1071, '1', 0.00669, 0.04319, 0.00824, 300, 300, 300, 0, 0, 0, 0, 1, 1, 0, 1, 1, 0, 1, 0, 1, 0, 1
1082, 1038, '1', 0.01115, 0.04969, 0.00729, 149, 149, 149, 0, 0, 0, 0, 1, 1, 0, 1, 1, 0, 1, 0, 1, 0, 1
1083, 1038, '1', 0.01, 0.05, 0.007, 221, 221, 221, 0, 0, 0, 0, 1, 1, 0, 1, 1, 0, 1, 0, 1, 0, 1
1040, 1090, '1', 0.02991, 0.13329, 0.01955, 149, 149, 149, 0, 0, 0, 0, 1, 1, 0, 1, 1, 0, 1, 0, 1, 0, 1
1065, 1041, '1', 0.00386, 0.02203, 0.00331, 98, 98, 98, 0, 0, 0, 0, 1, 1, 0, 1, 1, 0, 1, 0, 1, 0, 1
1041, 1067, '1', 0.00393, 0.01722, 0.00262, 149, 149, 149, 0, 0, 0, 0, 1, 1, 0, 1, 1, 0, 1, 0, 1, 0, 1
1044, 3019, '1', 0.03857, 0.17192, 0.02521, 149, 149, 149, 0, 0, 0, 0, 1, 1, 0, 1, 1, 0, 1, 0, 1, 0, 1
3130, 1044, '1', 0.02731, 0.19029, 0.03111, 221, 221, 221, 0, 0, 0, 0, 1, 1, 0, 1, 1, 0, 1, 0, 1, 0, 1
1045, 1064, '1', 0.00545, 0.03794, 0.0062, 221, 221, 221, 0, 0, 0, 0, 1, 1, 0, 1, 1, 0, 1, 0, 1, 0, 1
1087, 1046, '1', 0.03262, 0.14269, 0.02173, 149, 149, 149, 0, 0, 0, 0, 1, 1, 0, 1, 1, 0, 1, 0, 1, 0, 1
1046, 3009, '1', 0.05654, 0.23454, 0.0398, 149, 149, 149, 0, 0, 0, 0, 1, 1, 0, 1, 1, 0, 1, 0, 1, 0, 1
1047, 1085, '1', 0.00947, 0.06117, 0.01167, 221, 221, 221, 0, 0, 0, 0, 1, 1, 0, 1, 1, 0, 1, 0, 1, 0, 1
1053, 1081, '1', 0.003, 0.03, 0.06, 548, 548, 548, 0, 0, 0, 0, 1, 1, 0, 1, 1, 0, 1, 0, 1, 0, 1
1054, 1056, '1', 0.02202, 0.09633, 0.01467, 149, 149, 149, 0, 0, 0, 0, 1, 1, 0, 1, 1, 0, 1, 0, 1, 0, 1
1089, 1054, '1', 0.08737, 0.21357, 0.02796, 98, 98, 98, 0, 0, 0, 0, 1, 1, 0, 1, 1, 0, 1, 0, 1, 0, 1
1055, 1089, '1', 0.04982, 0.12179, 0.01595, 98, 98, 98, 0, 0, 0, 0, 1, 1, 0, 1, 1, 0, 1, 0, 1, 0, 1
1056, 1061, '1', 0.02267, 0.12946, 0.01945, 150, 150, 150, 0, 0, 0, 0, 1, 1, 0, 1, 1, 0, 1, 0, 1, 0, 1
1056, 1065, '1', 0.02269, 0.12962, 0.01948, 250, 250, 250, 0, 0, 0, 0, 1, 1, 0, 1, 1, 0, 1, 0, 1, 0, 1
1069, 1058, '1', 0.0074, 0.05155, 0.00843, 221, 221, 221, 0, 0, 0, 0, 1, 1, 0, 1, 1, 0, 1, 0, 1, 0, 1
1069, 1058, '2', 0.0074, 0.05155, 0.00843, 221, 221, 221, 0, 0, 0, 0, 1, 1, 0, 1, 1, 0, 1, 0, 1, 0, 1
1058, 1087, '1', 0.01573, 0.10956, 0.01791, 221, 221, 221, 0, 0, 0, 0, 1, 1, 0, 1, 1, 0, 1, 0, 1, 0, 1
1058, 1087, '2', 0.01573, 0.10956, 0.01791, 221, 221, 221, 0, 0, 0, 0, 1, 1, 0, 1, 1, 0, 1, 0, 1, 0, 1
1061, 3042, '1', 0.054, 0.18, 0.028, 221, 221, 221, 0, 0, 0, 0, 1, 1, 0, 1, 1, 0, 1, 0, 1, 0, 1
1088, 1068, '1', 0.02962, 0.16921, 0.02543, 98, 98, 98, 0, 0, 0, 0, 1, 1, 0, 1, 1, 0, 1, 0, 1, 0, 1
1082, 1069, '1', 0.02137, 0.0952, 0.01396, 149, 149, 149, 0, 0, 0, 0, 1, 1, 0, 1, 1, 0, 1, 0, 1, 0, 1
3048, 1079, '1', 0.0013, 0.015, 1.02, 2300, 2300, 2300, 0, 0, 0, 0, 1, 1, 0, 1, 1, 0, 1, 0, 1, 0, 1
3048, 1079, '2', 0.0013, 0.015, 1.02, 2300, 2300, 2300, 0, 0, 0, 0, 1, 1, 0, 1, 1, 0, 1, 0, 1, 0, 1
1081, 3058, '1', 0.0091, 0.089, 0.171, 548, 548, 548, 0, 0, 0, 0, 1, 1, 0, 1, 1, 0, 1, 0, 1, 0, 1
1084, 3130, '1', 0.02049, 0.09131, 0.01339, 221, 221, 221, 0, 0, 0, 0, 1, 1, 0, 1, 1, 0, 1, 0, 1, 0, 1
1085, 1086, '1', 0.03392, 0.14838, 0.0226, 149, 149, 149, 0, 0, 0, 0, 1, 1, 0, 1, 1, 0, 1, 0, 1, 0, 1
1090, 1085, '1', 0.02018, 0.13786, 0.02346, 221, 221, 221, 0, 0, 0, 0, 1, 1, 0, 1, 1, 0, 1, 0, 1, 0, 1
2029, 1091, '1', 0.0389, 0.17144, 0.0798, 187, 187, 187, 0, 0, 0, 0, 1, 1, 0, 1, 1, 0, 1, 0, 1, 0, 1
1091, 2048, '1', 0.02193, 0.09667, 0.045, 187, 187, 187, 0, 0, 0, 0, 1, 1, 0, 1, 1, 0, 1, 0, 1, 0, 1
2098, 1091, '1', 0.00554, 0.02443, 0.01137, 187, 187, 187, 0, 0, 0, 0, 1, 1, 0, 1, 1, 0, 1, 0, 1, 0, 1
2022, 2001, '1', 0.00839, 0.03697, 0.01721, 187, 187, 187, 0, 0, 0, 0, 1, 1, 0, 1, 1, 0, 1, 0, 1, 0, 1
2027, 2001, '1', 0.00955, 0.04062, 0.02032, 187, 187, 187, 0, 0, 0, 0, 1, 1, 0, 1, 1, 0, 1, 0, 1, 0, 1
2021, 2002, '1', 0.00097, 0.01175, 0.78032, 2295, 2295, 2295, 0, 0, 0, 0, 1, 1, 0, 1, 1, 0, 1, 0, 1, 0, 1
2002, 2101, '1', 0.00031, 0.0037, 0.24573, 2020, 2020, 2020, 0, 0, 0, 0, 1, 1, 0, 1, 1, 0, 1, 0, 1, 0, 1
2038, 2003, '1', 0.00353, 0.02067, 0.01032, 251, 251, 251, 0, 0, 0, 0, 1, 1, 0, 1, 1, 0, 1, 0, 1, 0, 1
2003, 2047, '1', 0.0013, 0.0099, 0.0052, 310, 310, 310, 0, 0, 0, 0, 1, 1, 0, 1, 1, 0, 1, 0, 1, 0, 1
2007, 2114, '1', 0.00888, 0.05207, 0.026, 251, 251, 251, 0, 0, 0, 0, 1, 1, 0, 1, 1, 0, 1, 0, 1, 0, 1
2007, 2122, '1', 0.00861, 0.03661, 0.01831, 187, 187, 187, 0, 0, 0, 0, 1, 1, 0, 1, 1, 0, 1, 0, 1, 0, 1
2014, 2008, '1', 0.02253, 0.09931, 0.04623, 187, 187, 187, 0, 0, 0, 0, 1, 1, 0, 1, 1, 0, 1, 0, 1, 0, 1
2008, 2052, '1', 0.01877, 0.08271, 0.0385, 187, 187, 187, 0, 0, 0, 0, 1, 1, 0, 1, 1, 0, 1, 0, 1, 0, 1
2009, 2049, '1', 0.01224, 0.07176, 0.03583, 251, 251, 251, 0, 0, 0, 0, 1, 1, 0, 1, 1, 0, 1, 0, 1, 0, 1
2009, 2082, '1', 0.00735, 0.03126, 0.01563, 187, 187, 187, 0, 0, 0, 0, 1, 1, 0, 1, 1, 0, 1, 0, 1, 0, 1
2109, 2009, '1', 0.00725, 0.03084, 0.01542, 250, 250, 250, 0, 0, 0, 0, 1, 1, 0, 1, 1, 0, 1, 0, 1, 0, 1
2061, 2010, '1', 0.02439, 0.10748, 0.05003, 187, 187, 187, 0, 0, 0, 0, 1, 1, 0, 1, 1, 0, 1, 0, 1, 0, 1
2010, 2079, '1', 0.02061, 0.09083, 0.04228, 187, 187, 187, 0, 0, 0, 0, 1, 1, 0, 1, 1, 0, 1, 0, 1, 0, 1
2010, 2091, '1', 0.02461, 0.10467, 0.05235, 187, 187, 187, 0, 0, 0, 0, 1, 1, 0, 1, 1, 0, 1, 0, 1, 0, 1
2127, 2011, '1', 0.00108, 0.01307, 0.86827, 2020, 2020, 2020, 0, 0, 0, 0, 1, 1, 0, 1, 1, 0, 1, 0, 1, 0, 1
2012, 2041, '1', 0.01245, 0.05297, 0.02649, 187, 187, 187, 0, 0, 0, 0, 1, 1, 0, 1, 1, 0, 1, 0, 1, 0, 1
2012, 2052, '1', 0.02008, 0.08851, 0.0412, 187, 187, 187, 0, 0, 0, 0, 1, 1, 0, 1, 1, 0, 1, 0, 1, 0, 1
2093, 2012, '1', 0.01029, 0.04536, 0.02111, 187, 187, 187, 0, 0, 0, 0, 1, 1, 0, 1, 1, 0, 1, 0, 1, 0, 1
...